                                   MODFLOW 6
                U.S. GEOLOGICAL SURVEY MODULAR HYDROLOGIC MODEL
                          GROUNDWATER FLOW MODEL (GWF)
                   VERSION 6.2.2 release candidate 03/29/2021
                               ***DEVELOP MODE***

   MODFLOW 6 compiled Mar 29 2021 02:46:40 with IFORT compiler (ver. 20.21.1)

This software is preliminary or provisional and is subject to 
revision. It is being provided to meet the need for timely best 
science. The software has not received final approval by the U.S. 
Geological Survey (USGS). No warranty, expressed or implied, is made 
by the USGS or the U.S. Government as to the functionality of the 
software and related material nor shall the fact of release 
constitute any such warranty. The software is provided on the 
condition that neither the USGS nor the U.S. Government shall be held 
liable for any damages resulting from the authorized or unauthorized 
use of the software.


System command used to initiate simulation:
C:\Users\mka483\Miniconda3\envs\GEB\python.exe c:\Users\mka483\.vscode\extensions\ms-python.python-2022.18.2\pythonFiles\lib\python\debugpy\launcher/../..\debugpy --connect 127.0.0.1:51523 --configure-qt none --adapter-access-token b3738e86f13064885b6e6326eef9430f5fca28e9df7f6fdf80f6b099cef1e628 run.py --headless --scenario spinup --config sanctuary.yml

MODFLOW was compiled using uniform precision.

Real Variables
  KIND: 8
  TINY (smallest non-zero value):    2.225074-308
  HUGE (largest value):    1.797693+308
  PRECISION: 15
  BIT SIZE: 64

Integer Variables
  KIND: 4
  HUGE (largest value): 2147483647
  BIT SIZE: 32

Long Integer Variables
  KIND: 8
  HUGE (largest value): 9223372036854775807
  BIT SIZE: 64

Logical Variables
  KIND: 4
  BIT SIZE: 32
 

 OPENED .\TRANSIENT.dis
 FILE TYPE:DIS6                   UNIT 1006   STATUS:OLD                 
 FORMAT:FORMATTED              ACCESS:SEQUENTIAL          
 ACTION:READ                


 OPENED .\TRANSIENT.ic
 FILE TYPE:IC6                    UNIT 1007   STATUS:OLD                 
 FORMAT:FORMATTED              ACCESS:SEQUENTIAL          
 ACTION:READ                


 OPENED .\TRANSIENT.npf
 FILE TYPE:NPF6                   UNIT 1008   STATUS:OLD                 
 FORMAT:FORMATTED              ACCESS:SEQUENTIAL          
 ACTION:READ                


 OPENED .\TRANSIENT.oc
 FILE TYPE:OC6                    UNIT 1009   STATUS:OLD                 
 FORMAT:FORMATTED              ACCESS:SEQUENTIAL          
 ACTION:READ                


 OPENED .\TRANSIENT.sto
 FILE TYPE:STO6                   UNIT 1010   STATUS:OLD                 
 FORMAT:FORMATTED              ACCESS:SEQUENTIAL          
 ACTION:READ                


 OPENED .\TRANSIENT.rch
 FILE TYPE:RCH6                   UNIT 1011   STATUS:OLD                 
 FORMAT:FORMATTED              ACCESS:SEQUENTIAL          
 ACTION:READ                


 OPENED .\TRANSIENT.wel
 FILE TYPE:WEL6                   UNIT 1012   STATUS:OLD                 
 FORMAT:FORMATTED              ACCESS:SEQUENTIAL          
 ACTION:READ                


 OPENED .\TRANSIENT.drn
 FILE TYPE:DRN6                   UNIT 1013   STATUS:OLD                 
 FORMAT:FORMATTED              ACCESS:SEQUENTIAL          
 ACTION:READ                

 NAMEFILE OPTIONS:
    NEWTON-RAPHSON method enabled for the model.
    NEWTON-RAPHSON UNDER-RELAXATION based on the bottom elevation of the model will be applied to the model.

 DIS -- STRUCTURED GRID DISCRETIZATION PACKAGE, VERSION 2 : 3/27/2014 - INPUT READ FROM UNIT 1006


 # File generated by Flopy version 3.3.5 on 12/07/2022 at 13:22:42.
 PROCESSING DISCRETIZATION OPTIONS
    BINARY GRB FILE WILL NOT BE WRITTEN
 END OF DISCRETIZATION OPTIONS
 MODEL LENGTH UNIT IS UNDEFINED
 PROCESSING DISCRETIZATION DIMENSIONS
    NLAY =       1
    NROW =      29
    NCOL =      51
 END OF DISCRETIZATION DIMENSIONS
 PROCESSING GRIDDATA

                     DELR =   1000.000    

                     DELC =   1000.000    
 END PROCESSING GRIDDATA

 THE SPECIFIED IDOMAIN RESULTS IN A REDUCED NUMBER OF CELLS.
 NUMBER OF USER NODES: 1479
 NUMBER OF NODES IN SOLUTION: 720



 NPF -- NODE PROPERTY FLOW PACKAGE, VERSION 1, 3/30/2015 INPUT READ FROM UNIT 1008


 # File generated by Flopy version 3.3.5 on 12/07/2022 at 13:22:42.
 PROCESSING NPF OPTIONS
    CELL-BY-CELL FLOW INFORMATION WILL BE SAVED TO BINARY FILE WHENEVER ICBCFL IS NOT ZERO.
 END OF NPF OPTIONS

 WEL   -- WEL PACKAGE, VERSION 8, 2/22/2014 INPUT READ FROM UNIT 1012
 # File generated by Flopy version 3.3.5 on 12/07/2022 at 13:22:42.

 PROCESSING WEL OPTIONS
    AUTOMATIC FLOW REDUCTION OF WELLS IMPLEMENTED.
    AUTOMATIC FLOW REDUCTION FRACTION (  0.1000000    ).
 END OF WEL OPTIONS

 PROCESSING WEL DIMENSIONS
    MAXBOUND =     720
 END OF WEL DIMENSIONS

 DRN   -- DRN PACKAGE, VERSION 8, 2/22/2014 INPUT READ FROM UNIT 1013
 # File generated by Flopy version 3.3.5 on 12/07/2022 at 13:22:42.

 PROCESSING DRN OPTIONS
 END OF DRN OPTIONS

 PROCESSING DRN DIMENSIONS
    MAXBOUND =     720
 END OF DRN DIMENSIONS

 RCH   -- RCH PACKAGE, VERSION 8, 2/22/2014 INPUT READ FROM UNIT 1011
 # File generated by Flopy version 3.3.5 on 12/07/2022 at 13:22:42.

 PROCESSING RCH OPTIONS
 END OF RCH OPTIONS

 PROCESSING RCH DIMENSIONS
    MAXBOUND =     720
 END OF RCH DIMENSIONS

 IC -- INITIAL CONDITIONS PACKAGE, VERSION 8, 3/28/2015 INPUT READ FROM UNIT 1007
 # File generated by Flopy version 3.3.5 on 12/07/2022 at 13:22:42.
 PROCESSING GRIDDATA
 END PROCESSING GRIDDATA
 PROCESSING GRIDDATA

                ICELLTYPE = 1
 K33 not provided.  Assuming K33 = K.
 K22 not provided.  Assuming K22 = K.
 END PROCESSING GRIDDATA

 STO -- STORAGE PACKAGE, VERSION 1, 5/19/2014 INPUT READ FROM UNIT 1010


 # File generated by Flopy version 3.3.5 on 12/07/2022 at 13:22:42.
 PROCESSING STORAGE OPTIONS
 END OF STORAGE OPTIONS
 PROCESSING GRIDDATA

                 ICONVERT = 1

         SPECIFIC STORAGE =   0.000000    

           SPECIFIC YIELD =  0.1000000    
 END PROCESSING GRIDDATA
      THE LAST TIME STEP WILL BE PRINTED
      THE LAST TIME STEP WILL BE PRINTED
 # File generated by Flopy version 3.3.5 on 12/07/2022 at 13:22:42.

 PROCESSING OC OPTIONS

    HEAD INFORMATION WILL BE WRITTEN TO:
      UNIT NUMBER: 1015
      FILE NAME: TRANSIENT.hds

 OPENED TRANSIENT.hds
 FILE TYPE:DATA(BINARY)   UNIT 1015   STATUS:REPLACE             
 FORMAT:UNFORMATTED            ACCESS:STREAM              
 ACTION:READWRITE           

 END OF OC OPTIONS

start timestep kper="1" kstp="1" mode="normal"


 BEGIN READING OUTPUT CONTROL FOR STRESS PERIOD 1
      THE FOLLOWING FREQUENCY WILL BE SAVED: 10

 END READING OUTPUT CONTROL FOR STRESS PERIOD 1


 PROCESSING STORAGE PERIOD DATA
 END PROCESSING STORAGE PERIOD DATA


 STRESS PERIOD 1 IS TRANSIENT



  VOLUME BUDGET FOR ENTIRE MODEL AT END OF TIME STEP    1, STRESS PERIOD   1
  ---------------------------------------------------------------------------------------------------

     CUMULATIVE VOLUME      L**3       RATES FOR THIS TIME STEP      L**3/T          PACKAGE NAME    
     ------------------                 ------------------------                     ----------------

           IN:                                      IN:
           ---                                      ---
              STO-SS =           0.0000                STO-SS =           0.0000     STORAGE         
              STO-SY =     3642473.3325                STO-SY =     3642473.3325     STORAGE         
                 WEL =           0.0000                   WEL =           0.0000     WEL_0           
                 DRN =           0.0000                   DRN =           0.0000     DRN_0           
                 RCH =       21909.0322                   RCH =       21909.0322     RCH_0           

            TOTAL IN =     3664382.3647              TOTAL IN =     3664382.3647

          OUT:                                     OUT:
          ----                                     ----
              STO-SS =           0.0000                STO-SS =           0.0000     STORAGE         
              STO-SY =     3649932.9646                STO-SY =     3649932.9646     STORAGE         
                 WEL =       14449.4001                   WEL =       14449.4001     WEL_0           
                 DRN =           0.0000                   DRN =           0.0000     DRN_0           
                 RCH =           0.0000                   RCH =           0.0000     RCH_0           

           TOTAL OUT =     3664382.3647             TOTAL OUT =     3664382.3647

            IN - OUT =       1.5455E-06              IN - OUT =       1.5455E-06

 PERCENT DISCREPANCY =           0.00     PERCENT DISCREPANCY =           0.00




         TIME SUMMARY AT END OF TIME STEP    1 IN STRESS PERIOD    1
                          TIME STEP LENGTH =    1.00000    
                        STRESS PERIOD TIME =    1.00000    
                     TOTAL SIMULATION TIME =    1.00000    

end timestep


start timestep kper="2" kstp="1" mode="normal"


 END OF FILE DETECTED IN OUTPUT CONTROL.
 CURRENT OUTPUT CONTROL SETTINGS WILL BE 
 REPEATED UNTIL THE END OF THE SIMULATION.

 OUTPUT CONTROL FOR STRESS PERIOD 2 IS REPEATED USING SETTINGS FROM A PREVIOUS STRESS PERIOD.


 STRESS PERIOD 2 IS TRANSIENT


 REUSING WELS FROM LAST STRESS PERIOD

 REUSING DRNS FROM LAST STRESS PERIOD

 REUSING RCHS FROM LAST STRESS PERIOD


  VOLUME BUDGET FOR ENTIRE MODEL AT END OF TIME STEP    1, STRESS PERIOD   2
  ---------------------------------------------------------------------------------------------------

     CUMULATIVE VOLUME      L**3       RATES FOR THIS TIME STEP      L**3/T          PACKAGE NAME    
     ------------------                 ------------------------                     ----------------

           IN:                                      IN:
           ---                                      ---
              STO-SS =           0.0000                STO-SS =           0.0000     STORAGE         
              STO-SY =     7266855.9730                STO-SY =     3624382.6405     STORAGE         
                 WEL =           0.0000                   WEL =           0.0000     WEL_0           
                 DRN =           0.0000                   DRN =           0.0000     DRN_0           
                 RCH =       42289.9198                   RCH =       20380.8876     RCH_0           

            TOTAL IN =     7309145.8927              TOTAL IN =     3644763.5280

          OUT:                                     OUT:
          ----                                     ----
              STO-SS =           0.0000                STO-SS =           0.0000     STORAGE         
              STO-SY =     7281038.9501                STO-SY =     3631105.9855     STORAGE         
                 WEL =       28106.9426                   WEL =       13657.5425     WEL_0           
                 DRN =           0.0000                   DRN =           0.0000     DRN_0           
                 RCH =           0.0000                   RCH =           0.0000     RCH_0           

           TOTAL OUT =     7309145.8927             TOTAL OUT =     3644763.5280

            IN - OUT =       1.6475E-06              IN - OUT =       1.0245E-07

 PERCENT DISCREPANCY =           0.00     PERCENT DISCREPANCY =           0.00




         TIME SUMMARY AT END OF TIME STEP    1 IN STRESS PERIOD    2
                          TIME STEP LENGTH =    1.00000    
                        STRESS PERIOD TIME =    1.00000    
                     TOTAL SIMULATION TIME =    2.00000    

end timestep


start timestep kper="3" kstp="1" mode="normal"


 OUTPUT CONTROL FOR STRESS PERIOD 3 IS REPEATED USING SETTINGS FROM A PREVIOUS STRESS PERIOD.


 STRESS PERIOD 3 IS TRANSIENT


 REUSING WELS FROM LAST STRESS PERIOD

 REUSING DRNS FROM LAST STRESS PERIOD

 REUSING RCHS FROM LAST STRESS PERIOD


  VOLUME BUDGET FOR ENTIRE MODEL AT END OF TIME STEP    1, STRESS PERIOD   3
  ---------------------------------------------------------------------------------------------------

     CUMULATIVE VOLUME      L**3       RATES FOR THIS TIME STEP      L**3/T          PACKAGE NAME    
     ------------------                 ------------------------                     ----------------

           IN:                                      IN:
           ---                                      ---
              STO-SS =           0.0000                STO-SS =           0.0000     STORAGE         
              STO-SY =    10873124.0296                STO-SY =     3606268.0567     STORAGE         
                 WEL =           0.0000                   WEL =           0.0000     WEL_0           
                 DRN =           0.0000                   DRN =           0.0000     DRN_0           
                 RCH =       62155.7700                   RCH =       19865.8503     RCH_0           

            TOTAL IN =    10935279.7996              TOTAL IN =     3626133.9069

          OUT:                                     OUT:
          ----                                     ----
              STO-SS =           0.0000                STO-SS =           0.0000     STORAGE         
              STO-SY =    10893392.9563                STO-SY =     3612354.0062     STORAGE         
                 WEL =       41886.8433                   WEL =       13779.9007     WEL_0           
                 DRN =           0.0000                   DRN =           0.0000     DRN_0           
                 RCH =           0.0000                   RCH =           0.0000     RCH_0           

           TOTAL OUT =    10935279.7996             TOTAL OUT =     3626133.9069

            IN - OUT =       1.8384E-06              IN - OUT =       1.8999E-07

 PERCENT DISCREPANCY =           0.00     PERCENT DISCREPANCY =           0.00




         TIME SUMMARY AT END OF TIME STEP    1 IN STRESS PERIOD    3
                          TIME STEP LENGTH =    1.00000    
                        STRESS PERIOD TIME =    1.00000    
                     TOTAL SIMULATION TIME =    3.00000    

end timestep


start timestep kper="4" kstp="1" mode="normal"


 OUTPUT CONTROL FOR STRESS PERIOD 4 IS REPEATED USING SETTINGS FROM A PREVIOUS STRESS PERIOD.


 STRESS PERIOD 4 IS TRANSIENT


 REUSING WELS FROM LAST STRESS PERIOD

 REUSING DRNS FROM LAST STRESS PERIOD

 REUSING RCHS FROM LAST STRESS PERIOD


  VOLUME BUDGET FOR ENTIRE MODEL AT END OF TIME STEP    1, STRESS PERIOD   4
  ---------------------------------------------------------------------------------------------------

     CUMULATIVE VOLUME      L**3       RATES FOR THIS TIME STEP      L**3/T          PACKAGE NAME    
     ------------------                 ------------------------                     ----------------

           IN:                                      IN:
           ---                                      ---
              STO-SS =           0.0000                STO-SS =           0.0000     STORAGE         
              STO-SY =    14461349.7631                STO-SY =     3588225.7334     STORAGE         
                 WEL =           0.0000                   WEL =           0.0000     WEL_0           
                 DRN =           0.0000                   DRN =           0.0000     DRN_0           
                 RCH =       81780.2922                   RCH =       19624.5222     RCH_0           

            TOTAL IN =    14543130.0553              TOTAL IN =     3607850.2556

          OUT:                                     OUT:
          ----                                     ----
              STO-SS =           0.0000                STO-SS =           0.0000     STORAGE         
              STO-SY =    14448302.4277                STO-SY =     3554909.4713     STORAGE         
                 WEL =       54876.0604                   WEL =       12989.2171     WEL_0           
                 DRN =       39951.5672                   DRN =       39951.5672     DRN_0           
                 RCH =           0.0000                   RCH =           0.0000     RCH_0           

           TOTAL OUT =    14543130.0553             TOTAL OUT =     3607850.2556

            IN - OUT =       2.5816E-06              IN - OUT =       7.4366E-07

 PERCENT DISCREPANCY =           0.00     PERCENT DISCREPANCY =           0.00




         TIME SUMMARY AT END OF TIME STEP    1 IN STRESS PERIOD    4
                          TIME STEP LENGTH =    1.00000    
                        STRESS PERIOD TIME =    1.00000    
                     TOTAL SIMULATION TIME =    4.00000    

end timestep


start timestep kper="5" kstp="1" mode="normal"


 OUTPUT CONTROL FOR STRESS PERIOD 5 IS REPEATED USING SETTINGS FROM A PREVIOUS STRESS PERIOD.


 STRESS PERIOD 5 IS TRANSIENT


 REUSING WELS FROM LAST STRESS PERIOD

 REUSING DRNS FROM LAST STRESS PERIOD

 REUSING RCHS FROM LAST STRESS PERIOD


  VOLUME BUDGET FOR ENTIRE MODEL AT END OF TIME STEP    1, STRESS PERIOD   5
  ---------------------------------------------------------------------------------------------------

     CUMULATIVE VOLUME      L**3       RATES FOR THIS TIME STEP      L**3/T          PACKAGE NAME    
     ------------------                 ------------------------                     ----------------

           IN:                                      IN:
           ---                                      ---
              STO-SS =           0.0000                STO-SS =           0.0000     STORAGE         
              STO-SY =    18031574.1454                STO-SY =     3570224.3823     STORAGE         
                 WEL =           0.0000                   WEL =           0.0000     WEL_0           
                 DRN =           0.0000                   DRN =           0.0000     DRN_0           
                 RCH =      101591.7905                   RCH =       19811.4983     RCH_0           

            TOTAL IN =    18133165.9358              TOTAL IN =     3590035.8806

          OUT:                                     OUT:
          ----                                     ----
              STO-SS =           0.0000                STO-SS =           0.0000     STORAGE         
              STO-SY =    17906177.1979                STO-SY =     3457874.7702     STORAGE         
                 WEL =       67884.4603                   WEL =       13008.3999     WEL_0           
                 DRN =      159104.2776                   DRN =      119152.7104     DRN_0           
                 RCH =           0.0000                   RCH =           0.0000     RCH_0           

           TOTAL OUT =    18133165.9358             TOTAL OUT =     3590035.8806

            IN - OUT =       2.8610E-06              IN - OUT =       2.8173E-07

 PERCENT DISCREPANCY =           0.00     PERCENT DISCREPANCY =           0.00




         TIME SUMMARY AT END OF TIME STEP    1 IN STRESS PERIOD    5
                          TIME STEP LENGTH =    1.00000    
                        STRESS PERIOD TIME =    1.00000    
                     TOTAL SIMULATION TIME =    5.00000    

end timestep


start timestep kper="6" kstp="1" mode="normal"


 OUTPUT CONTROL FOR STRESS PERIOD 6 IS REPEATED USING SETTINGS FROM A PREVIOUS STRESS PERIOD.


 STRESS PERIOD 6 IS TRANSIENT


 REUSING WELS FROM LAST STRESS PERIOD

 REUSING DRNS FROM LAST STRESS PERIOD

 REUSING RCHS FROM LAST STRESS PERIOD


  VOLUME BUDGET FOR ENTIRE MODEL AT END OF TIME STEP    1, STRESS PERIOD   6
  ---------------------------------------------------------------------------------------------------

     CUMULATIVE VOLUME      L**3       RATES FOR THIS TIME STEP      L**3/T          PACKAGE NAME    
     ------------------                 ------------------------                     ----------------

           IN:                                      IN:
           ---                                      ---
              STO-SS =           0.0000                STO-SS =           0.0000     STORAGE         
              STO-SY =    21583936.9094                STO-SY =     3552362.7641     STORAGE         
                 WEL =           0.0000                   WEL =           0.0000     WEL_0           
                 DRN =           0.0000                   DRN =           0.0000     DRN_0           
                 RCH =      122096.8096                   RCH =       20505.0191     RCH_0           

            TOTAL IN =    21706033.7190              TOTAL IN =     3572867.7832

          OUT:                                     OUT:
          ----                                     ----
              STO-SS =           0.0000                STO-SS =           0.0000     STORAGE         
              STO-SY =    21155959.7020                STO-SY =     3249782.5041     STORAGE         
                 WEL =       80895.6443                   WEL =       13011.1839     WEL_0           
                 DRN =      469178.3727                   DRN =      310074.0951     DRN_0           
                 RCH =           0.0000                   RCH =           0.0000     RCH_0           

           TOTAL OUT =    21706033.7190             TOTAL OUT =     3572867.7832

            IN - OUT =       3.3863E-06              IN - OUT =       5.2201E-07

 PERCENT DISCREPANCY =           0.00     PERCENT DISCREPANCY =           0.00




         TIME SUMMARY AT END OF TIME STEP    1 IN STRESS PERIOD    6
                          TIME STEP LENGTH =    1.00000    
                        STRESS PERIOD TIME =    1.00000    
                     TOTAL SIMULATION TIME =    6.00000    

end timestep


start timestep kper="7" kstp="1" mode="normal"


 OUTPUT CONTROL FOR STRESS PERIOD 7 IS REPEATED USING SETTINGS FROM A PREVIOUS STRESS PERIOD.


 STRESS PERIOD 7 IS TRANSIENT


 REUSING WELS FROM LAST STRESS PERIOD

 REUSING DRNS FROM LAST STRESS PERIOD

 REUSING RCHS FROM LAST STRESS PERIOD


  VOLUME BUDGET FOR ENTIRE MODEL AT END OF TIME STEP    1, STRESS PERIOD   7
  ---------------------------------------------------------------------------------------------------

     CUMULATIVE VOLUME      L**3       RATES FOR THIS TIME STEP      L**3/T          PACKAGE NAME    
     ------------------                 ------------------------                     ----------------

           IN:                                      IN:
           ---                                      ---
              STO-SS =           0.0000                STO-SS =           0.0000     STORAGE         
              STO-SY =    25116785.5711                STO-SY =     3532848.6617     STORAGE         
                 WEL =           0.0000                   WEL =           0.0000     WEL_0           
                 DRN =           0.0000                   DRN =           0.0000     DRN_0           
                 RCH =      146331.6811                   RCH =       24234.8716     RCH_0           

            TOTAL IN =    25263117.2523              TOTAL IN =     3557083.5332

          OUT:                                     OUT:
          ----                                     ----
              STO-SS =           0.0000                STO-SS =           0.0000     STORAGE         
              STO-SY =    24143483.9711                STO-SY =     2987524.2691     STORAGE         
                 WEL =       93909.9433                   WEL =       13014.2991     WEL_0           
                 DRN =     1025723.3378                   DRN =      556544.9651     DRN_0           
                 RCH =           0.0000                   RCH =           0.0000     RCH_0           

           TOTAL OUT =    25263117.2522             TOTAL OUT =     3557083.5332

            IN - OUT =       3.2187E-06              IN - OUT =      -1.7043E-07

 PERCENT DISCREPANCY =           0.00     PERCENT DISCREPANCY =          -0.00




         TIME SUMMARY AT END OF TIME STEP    1 IN STRESS PERIOD    7
                          TIME STEP LENGTH =    1.00000    
                        STRESS PERIOD TIME =    1.00000    
                     TOTAL SIMULATION TIME =    7.00000    

end timestep


start timestep kper="8" kstp="1" mode="normal"


 OUTPUT CONTROL FOR STRESS PERIOD 8 IS REPEATED USING SETTINGS FROM A PREVIOUS STRESS PERIOD.


 STRESS PERIOD 8 IS TRANSIENT


 REUSING WELS FROM LAST STRESS PERIOD

 REUSING DRNS FROM LAST STRESS PERIOD

 REUSING RCHS FROM LAST STRESS PERIOD


  VOLUME BUDGET FOR ENTIRE MODEL AT END OF TIME STEP    1, STRESS PERIOD   8
  ---------------------------------------------------------------------------------------------------

     CUMULATIVE VOLUME      L**3       RATES FOR THIS TIME STEP      L**3/T          PACKAGE NAME    
     ------------------                 ------------------------                     ----------------

           IN:                                      IN:
           ---                                      ---
              STO-SS =           0.0000                STO-SS =           0.0000     STORAGE         
              STO-SY =    28627241.2469                STO-SY =     3510455.6758     STORAGE         
                 WEL =           0.0000                   WEL =           0.0000     WEL_0           
                 DRN =           0.0000                   DRN =           0.0000     DRN_0           
                 RCH =      178993.4884                   RCH =       32661.8073     RCH_0           

            TOTAL IN =    28806234.7354              TOTAL IN =     3543117.4831

          OUT:                                     OUT:
          ----                                     ----
              STO-SS =           0.0000                STO-SS =           0.0000     STORAGE         
              STO-SY =    26877189.4212                STO-SY =     2733705.4501     STORAGE         
                 WEL =      106925.4033                   WEL =       13015.4600     WEL_0           
                 DRN =     1822119.9109                   DRN =      796396.5730     DRN_0           
                 RCH =           0.0000                   RCH =           0.0000     RCH_0           

           TOTAL OUT =    28806234.7354             TOTAL OUT =     3543117.4831

            IN - OUT =       2.6040E-06              IN - OUT =      -6.1654E-07

 PERCENT DISCREPANCY =           0.00     PERCENT DISCREPANCY =          -0.00




         TIME SUMMARY AT END OF TIME STEP    1 IN STRESS PERIOD    8
                          TIME STEP LENGTH =    1.00000    
                        STRESS PERIOD TIME =    1.00000    
                     TOTAL SIMULATION TIME =    8.00000    

end timestep


start timestep kper="9" kstp="1" mode="normal"


 OUTPUT CONTROL FOR STRESS PERIOD 9 IS REPEATED USING SETTINGS FROM A PREVIOUS STRESS PERIOD.


 STRESS PERIOD 9 IS TRANSIENT


 REUSING WELS FROM LAST STRESS PERIOD

 REUSING DRNS FROM LAST STRESS PERIOD

 REUSING RCHS FROM LAST STRESS PERIOD


  VOLUME BUDGET FOR ENTIRE MODEL AT END OF TIME STEP    1, STRESS PERIOD   9
  ---------------------------------------------------------------------------------------------------

     CUMULATIVE VOLUME      L**3       RATES FOR THIS TIME STEP      L**3/T          PACKAGE NAME    
     ------------------                 ------------------------                     ----------------

           IN:                                      IN:
           ---                                      ---
              STO-SS =           0.0000                STO-SS =           0.0000     STORAGE         
              STO-SY =    32104915.6680                STO-SY =     3477674.4210     STORAGE         
                 WEL =           0.0000                   WEL =           0.0000     WEL_0           
                 DRN =           0.0000                   DRN =           0.0000     DRN_0           
                 RCH =      243196.7713                   RCH =       64203.2829     RCH_0           

            TOTAL IN =    32348112.4393              TOTAL IN =     3541877.7039

          OUT:                                     OUT:
          ----                                     ----
              STO-SS =           0.0000                STO-SS =           0.0000     STORAGE         
              STO-SY =    29422193.9606                STO-SY =     2545004.5394     STORAGE         
                 WEL =      119939.6862                   WEL =       13014.2829     WEL_0           
                 DRN =     2805978.7924                   DRN =      983858.8816     DRN_0           
                 RCH =           0.0000                   RCH =           0.0000     RCH_0           

           TOTAL OUT =    32348112.4392             TOTAL OUT =     3541877.7039

            IN - OUT =       3.1888E-06              IN - OUT =       5.8301E-07

 PERCENT DISCREPANCY =           0.00     PERCENT DISCREPANCY =           0.00




         TIME SUMMARY AT END OF TIME STEP    1 IN STRESS PERIOD    9
                          TIME STEP LENGTH =    1.00000    
                        STRESS PERIOD TIME =    1.00000    
                     TOTAL SIMULATION TIME =    9.00000    

end timestep


start timestep kper="10" kstp="1" mode="normal"


 OUTPUT CONTROL FOR STRESS PERIOD 10 IS REPEATED USING SETTINGS FROM A PREVIOUS STRESS PERIOD.


 STRESS PERIOD 10 IS TRANSIENT


 REUSING WELS FROM LAST STRESS PERIOD

 REUSING DRNS FROM LAST STRESS PERIOD

 REUSING RCHS FROM LAST STRESS PERIOD


  VOLUME BUDGET FOR ENTIRE MODEL AT END OF TIME STEP    1, STRESS PERIOD  10
  ---------------------------------------------------------------------------------------------------

     CUMULATIVE VOLUME      L**3       RATES FOR THIS TIME STEP      L**3/T          PACKAGE NAME    
     ------------------                 ------------------------                     ----------------

           IN:                                      IN:
           ---                                      ---
              STO-SS =           0.0000                STO-SS =           0.0000     STORAGE         
              STO-SY =    35564616.2801                STO-SY =     3459700.6122     STORAGE         
                 WEL =           0.0000                   WEL =           0.0000     WEL_0           
                 DRN =           0.0000                   DRN =           0.0000     DRN_0           
                 RCH =      312394.3880                   RCH =       69197.6167     RCH_0           

            TOTAL IN =    35877010.6681              TOTAL IN =     3528898.2289

          OUT:                                     OUT:
          ----                                     ----
              STO-SS =           0.0000                STO-SS =           0.0000     STORAGE         
              STO-SY =    31649744.0545                STO-SY =     2227550.0939     STORAGE         
                 WEL =      132955.4175                   WEL =       13015.7313     WEL_0           
                 DRN =     4094311.1961                   DRN =     1288332.4037     DRN_0           
                 RCH =           0.0000                   RCH =           0.0000     RCH_0           

           TOTAL OUT =    35877010.6681             TOTAL OUT =     3528898.2289

            IN - OUT =       5.2750E-06              IN - OUT =       2.0904E-06

 PERCENT DISCREPANCY =           0.00     PERCENT DISCREPANCY =           0.00




         TIME SUMMARY AT END OF TIME STEP    1 IN STRESS PERIOD   10
                          TIME STEP LENGTH =    1.00000    
                        STRESS PERIOD TIME =    1.00000    
                     TOTAL SIMULATION TIME =    10.0000    

end timestep


start timestep kper="11" kstp="1" mode="normal"


 OUTPUT CONTROL FOR STRESS PERIOD 11 IS REPEATED USING SETTINGS FROM A PREVIOUS STRESS PERIOD.


 STRESS PERIOD 11 IS TRANSIENT


 REUSING WELS FROM LAST STRESS PERIOD

 REUSING DRNS FROM LAST STRESS PERIOD

 REUSING RCHS FROM LAST STRESS PERIOD


  VOLUME BUDGET FOR ENTIRE MODEL AT END OF TIME STEP    1, STRESS PERIOD  11
  ---------------------------------------------------------------------------------------------------

     CUMULATIVE VOLUME      L**3       RATES FOR THIS TIME STEP      L**3/T          PACKAGE NAME    
     ------------------                 ------------------------                     ----------------

           IN:                                      IN:
           ---                                      ---
              STO-SS =           0.0000                STO-SS =           0.0000     STORAGE         
              STO-SY =    39000142.2843                STO-SY =     3435526.0042     STORAGE         
                 WEL =           0.0000                   WEL =           0.0000     WEL_0           
                 DRN =           0.0000                   DRN =           0.0000     DRN_0           
                 RCH =      398403.3122                   RCH =       86008.9242     RCH_0           

            TOTAL IN =    39398545.5965              TOTAL IN =     3521534.9284

          OUT:                                     OUT:
          ----                                     ----
              STO-SS =           0.0000                STO-SS =           0.0000     STORAGE         
              STO-SY =    33630005.6057                STO-SY =     1980261.5512     STORAGE         
                 WEL =      145894.4284                   WEL =       12939.0109     WEL_0           
                 DRN =     5622645.5623                   DRN =     1528334.3662     DRN_0           
                 RCH =           0.0000                   RCH =           0.0000     RCH_0           

           TOTAL OUT =    39398545.5965             TOTAL OUT =     3521534.9284

            IN - OUT =       5.6028E-06              IN - OUT =       3.2550E-07

 PERCENT DISCREPANCY =           0.00     PERCENT DISCREPANCY =           0.00




         TIME SUMMARY AT END OF TIME STEP    1 IN STRESS PERIOD   11
                          TIME STEP LENGTH =    1.00000    
                        STRESS PERIOD TIME =    1.00000    
                     TOTAL SIMULATION TIME =    11.0000    

end timestep


start timestep kper="12" kstp="1" mode="normal"


 OUTPUT CONTROL FOR STRESS PERIOD 12 IS REPEATED USING SETTINGS FROM A PREVIOUS STRESS PERIOD.


 STRESS PERIOD 12 IS TRANSIENT


 REUSING WELS FROM LAST STRESS PERIOD

 REUSING DRNS FROM LAST STRESS PERIOD

 REUSING RCHS FROM LAST STRESS PERIOD


  VOLUME BUDGET FOR ENTIRE MODEL AT END OF TIME STEP    1, STRESS PERIOD  12
  ---------------------------------------------------------------------------------------------------

     CUMULATIVE VOLUME      L**3       RATES FOR THIS TIME STEP      L**3/T          PACKAGE NAME    
     ------------------                 ------------------------                     ----------------

           IN:                                      IN:
           ---                                      ---
              STO-SS =           0.0000                STO-SS =           0.0000     STORAGE         
              STO-SY =    42416720.3164                STO-SY =     3416578.0321     STORAGE         
                 WEL =           0.0000                   WEL =           0.0000     WEL_0           
                 DRN =           0.0000                   DRN =           0.0000     DRN_0           
                 RCH =      493446.2554                   RCH =       95042.9433     RCH_0           

            TOTAL IN =    42910166.5719              TOTAL IN =     3511620.9754

          OUT:                                     OUT:
          ----                                     ----
              STO-SS =           0.0000                STO-SS =           0.0000     STORAGE         
              STO-SY =    35491632.3119                STO-SY =     1861626.7062     STORAGE         
                 WEL =      158706.8991                   WEL =       12812.4707     WEL_0           
                 DRN =     7259827.3608                   DRN =     1637181.7985     DRN_0           
                 RCH =           0.0000                   RCH =           0.0000     RCH_0           

           TOTAL OUT =    42910166.5719             TOTAL OUT =     3511620.9754

            IN - OUT =       4.7982E-06              IN - OUT =      -8.0559E-07

 PERCENT DISCREPANCY =           0.00     PERCENT DISCREPANCY =          -0.00




         TIME SUMMARY AT END OF TIME STEP    1 IN STRESS PERIOD   12
                          TIME STEP LENGTH =    1.00000    
                        STRESS PERIOD TIME =    1.00000    
                     TOTAL SIMULATION TIME =    12.0000    

end timestep


start timestep kper="13" kstp="1" mode="normal"


 OUTPUT CONTROL FOR STRESS PERIOD 13 IS REPEATED USING SETTINGS FROM A PREVIOUS STRESS PERIOD.


 STRESS PERIOD 13 IS TRANSIENT


 REUSING WELS FROM LAST STRESS PERIOD

 REUSING DRNS FROM LAST STRESS PERIOD

 REUSING RCHS FROM LAST STRESS PERIOD


  VOLUME BUDGET FOR ENTIRE MODEL AT END OF TIME STEP    1, STRESS PERIOD  13
  ---------------------------------------------------------------------------------------------------

     CUMULATIVE VOLUME      L**3       RATES FOR THIS TIME STEP      L**3/T          PACKAGE NAME    
     ------------------                 ------------------------                     ----------------

           IN:                                      IN:
           ---                                      ---
              STO-SS =           0.0000                STO-SS =           0.0000     STORAGE         
              STO-SY =    45807942.3694                STO-SY =     3391222.0530     STORAGE         
                 WEL =           0.0000                   WEL =           0.0000     WEL_0           
                 DRN =           0.0000                   DRN =           0.0000     DRN_0           
                 RCH =      608246.1440                   RCH =      114799.8886     RCH_0           

            TOTAL IN =    46416188.5135              TOTAL IN =     3506021.9416

          OUT:                                     OUT:
          ----                                     ----
              STO-SS =           0.0000                STO-SS =           0.0000     STORAGE         
              STO-SY =    37204524.9262                STO-SY =     1712892.6143     STORAGE         
                 WEL =      171501.6409                   WEL =       12794.7418     WEL_0           
                 DRN =     9040161.9464                   DRN =     1780334.5855     DRN_0           
                 RCH =           0.0000                   RCH =           0.0000     RCH_0           

           TOTAL OUT =    46416188.5135             TOTAL OUT =     3506021.9416

            IN - OUT =       5.2899E-06              IN - OUT =       4.8848E-07

 PERCENT DISCREPANCY =           0.00     PERCENT DISCREPANCY =           0.00




         TIME SUMMARY AT END OF TIME STEP    1 IN STRESS PERIOD   13
                          TIME STEP LENGTH =    1.00000    
                        STRESS PERIOD TIME =    1.00000    
                     TOTAL SIMULATION TIME =    13.0000    

end timestep


start timestep kper="14" kstp="1" mode="normal"


 OUTPUT CONTROL FOR STRESS PERIOD 14 IS REPEATED USING SETTINGS FROM A PREVIOUS STRESS PERIOD.


 STRESS PERIOD 14 IS TRANSIENT


 REUSING WELS FROM LAST STRESS PERIOD

 REUSING DRNS FROM LAST STRESS PERIOD

 REUSING RCHS FROM LAST STRESS PERIOD


  VOLUME BUDGET FOR ENTIRE MODEL AT END OF TIME STEP    1, STRESS PERIOD  14
  ---------------------------------------------------------------------------------------------------

     CUMULATIVE VOLUME      L**3       RATES FOR THIS TIME STEP      L**3/T          PACKAGE NAME    
     ------------------                 ------------------------                     ----------------

           IN:                                      IN:
           ---                                      ---
              STO-SS =           0.0000                STO-SS =           0.0000     STORAGE         
              STO-SY =    49172873.6960                STO-SY =     3364931.3266     STORAGE         
                 WEL =           0.0000                   WEL =           0.0000     WEL_0           
                 DRN =           0.0000                   DRN =           0.0000     DRN_0           
                 RCH =      747059.8233                   RCH =      138813.6792     RCH_0           

            TOTAL IN =    49919933.5193              TOTAL IN =     3503745.0058

          OUT:                                     OUT:
          ----                                     ----
              STO-SS =           0.0000                STO-SS =           0.0000     STORAGE         
              STO-SY =    38717576.5024                STO-SY =     1513051.5761     STORAGE         
                 WEL =      184270.7371                   WEL =       12769.0962     WEL_0           
                 DRN =    11018086.2798                   DRN =     1977924.3334     DRN_0           
                 RCH =           0.0000                   RCH =           0.0000     RCH_0           

           TOTAL OUT =    49919933.5193             TOTAL OUT =     3503745.0058

            IN - OUT =       5.2378E-06              IN - OUT =      -4.5635E-08

 PERCENT DISCREPANCY =           0.00     PERCENT DISCREPANCY =          -0.00




         TIME SUMMARY AT END OF TIME STEP    1 IN STRESS PERIOD   14
                          TIME STEP LENGTH =    1.00000    
                        STRESS PERIOD TIME =    1.00000    
                     TOTAL SIMULATION TIME =    14.0000    

end timestep


start timestep kper="15" kstp="1" mode="normal"


 OUTPUT CONTROL FOR STRESS PERIOD 15 IS REPEATED USING SETTINGS FROM A PREVIOUS STRESS PERIOD.


 STRESS PERIOD 15 IS TRANSIENT


 REUSING WELS FROM LAST STRESS PERIOD

 REUSING DRNS FROM LAST STRESS PERIOD

 REUSING RCHS FROM LAST STRESS PERIOD


  VOLUME BUDGET FOR ENTIRE MODEL AT END OF TIME STEP    1, STRESS PERIOD  15
  ---------------------------------------------------------------------------------------------------

     CUMULATIVE VOLUME      L**3       RATES FOR THIS TIME STEP      L**3/T          PACKAGE NAME    
     ------------------                 ------------------------                     ----------------

           IN:                                      IN:
           ---                                      ---
              STO-SS =           0.0000                STO-SS =           0.0000     STORAGE         
              STO-SY =    52503403.4572                STO-SY =     3330529.7612     STORAGE         
                 WEL =           0.0000                   WEL =           0.0000     WEL_0           
                 DRN =           0.0000                   DRN =           0.0000     DRN_0           
                 RCH =      923250.6028                   RCH =      176190.7795     RCH_0           

            TOTAL IN =    53426654.0600              TOTAL IN =     3506720.5407

          OUT:                                     OUT:
          ----                                     ----
              STO-SS =           0.0000                STO-SS =           0.0000     STORAGE         
              STO-SY =    40100025.3206                STO-SY =     1382448.8182     STORAGE         
                 WEL =      196856.6949                   WEL =       12585.9578     WEL_0           
                 DRN =    13129772.0445                   DRN =     2111685.7648     DRN_0           
                 RCH =           0.0000                   RCH =           0.0000     RCH_0           

           TOTAL OUT =    53426654.0600             TOTAL OUT =     3506720.5407

            IN - OUT =       5.0962E-06              IN - OUT =      -1.4948E-07

 PERCENT DISCREPANCY =           0.00     PERCENT DISCREPANCY =          -0.00




         TIME SUMMARY AT END OF TIME STEP    1 IN STRESS PERIOD   15
                          TIME STEP LENGTH =    1.00000    
                        STRESS PERIOD TIME =    1.00000    
                     TOTAL SIMULATION TIME =    15.0000    

end timestep


start timestep kper="16" kstp="1" mode="normal"


 OUTPUT CONTROL FOR STRESS PERIOD 16 IS REPEATED USING SETTINGS FROM A PREVIOUS STRESS PERIOD.


 STRESS PERIOD 16 IS TRANSIENT


 REUSING WELS FROM LAST STRESS PERIOD

 REUSING DRNS FROM LAST STRESS PERIOD

 REUSING RCHS FROM LAST STRESS PERIOD


  VOLUME BUDGET FOR ENTIRE MODEL AT END OF TIME STEP    1, STRESS PERIOD  16
  ---------------------------------------------------------------------------------------------------

     CUMULATIVE VOLUME      L**3       RATES FOR THIS TIME STEP      L**3/T          PACKAGE NAME    
     ------------------                 ------------------------                     ----------------

           IN:                                      IN:
           ---                                      ---
              STO-SS =           0.0000                STO-SS =           0.0000     STORAGE         
              STO-SY =    55798926.4577                STO-SY =     3295523.0005     STORAGE         
                 WEL =           0.0000                   WEL =           0.0000     WEL_0           
                 DRN =           0.0000                   DRN =           0.0000     DRN_0           
                 RCH =     1137397.3602                   RCH =      214146.7574     RCH_0           

            TOTAL IN =    56936323.8179              TOTAL IN =     3509669.7579

          OUT:                                     OUT:
          ----                                     ----
              STO-SS =           0.0000                STO-SS =           0.0000     STORAGE         
              STO-SY =    41392124.4983                STO-SY =     1292099.1777     STORAGE         
                 WEL =      209401.4277                   WEL =       12544.7328     WEL_0           
                 DRN =    15334797.8919                   DRN =     2205025.8474     DRN_0           
                 RCH =           0.0000                   RCH =           0.0000     RCH_0           

           TOTAL OUT =    56936323.8179             TOTAL OUT =     3509669.7579

            IN - OUT =       5.5954E-06              IN - OUT =       5.0385E-07

 PERCENT DISCREPANCY =           0.00     PERCENT DISCREPANCY =           0.00




         TIME SUMMARY AT END OF TIME STEP    1 IN STRESS PERIOD   16
                          TIME STEP LENGTH =    1.00000    
                        STRESS PERIOD TIME =    1.00000    
                     TOTAL SIMULATION TIME =    16.0000    

end timestep


start timestep kper="17" kstp="1" mode="normal"


 OUTPUT CONTROL FOR STRESS PERIOD 17 IS REPEATED USING SETTINGS FROM A PREVIOUS STRESS PERIOD.


 STRESS PERIOD 17 IS TRANSIENT


 REUSING WELS FROM LAST STRESS PERIOD

 REUSING DRNS FROM LAST STRESS PERIOD

 REUSING RCHS FROM LAST STRESS PERIOD


  VOLUME BUDGET FOR ENTIRE MODEL AT END OF TIME STEP    1, STRESS PERIOD  17
  ---------------------------------------------------------------------------------------------------

     CUMULATIVE VOLUME      L**3       RATES FOR THIS TIME STEP      L**3/T          PACKAGE NAME    
     ------------------                 ------------------------                     ----------------

           IN:                                      IN:
           ---                                      ---
              STO-SS =           0.0000                STO-SS =           0.0000     STORAGE         
              STO-SY =    59081822.8109                STO-SY =     3282896.3532     STORAGE         
                 WEL =           0.0000                   WEL =           0.0000     WEL_0           
                 DRN =           0.0000                   DRN =           0.0000     DRN_0           
                 RCH =     1368396.5052                   RCH =      230999.1450     RCH_0           

            TOTAL IN =    60450219.3161              TOTAL IN =     3513895.4982

          OUT:                                     OUT:
          ----                                     ----
              STO-SS =           0.0000                STO-SS =           0.0000     STORAGE         
              STO-SY =    42622715.0699                STO-SY =     1230590.5716     STORAGE         
                 WEL =      221909.2532                   WEL =       12507.8256     WEL_0           
                 DRN =    17605594.9930                   DRN =     2270797.1010     DRN_0           
                 RCH =           0.0000                   RCH =           0.0000     RCH_0           

           TOTAL OUT =    60450219.3161             TOTAL OUT =     3513895.4982

            IN - OUT =       4.0010E-06              IN - OUT =      -1.5846E-06

 PERCENT DISCREPANCY =           0.00     PERCENT DISCREPANCY =          -0.00




         TIME SUMMARY AT END OF TIME STEP    1 IN STRESS PERIOD   17
                          TIME STEP LENGTH =    1.00000    
                        STRESS PERIOD TIME =    1.00000    
                     TOTAL SIMULATION TIME =    17.0000    

end timestep


start timestep kper="18" kstp="1" mode="normal"


 OUTPUT CONTROL FOR STRESS PERIOD 18 IS REPEATED USING SETTINGS FROM A PREVIOUS STRESS PERIOD.


 STRESS PERIOD 18 IS TRANSIENT


 REUSING WELS FROM LAST STRESS PERIOD

 REUSING DRNS FROM LAST STRESS PERIOD

 REUSING RCHS FROM LAST STRESS PERIOD


  VOLUME BUDGET FOR ENTIRE MODEL AT END OF TIME STEP    1, STRESS PERIOD  18
  ---------------------------------------------------------------------------------------------------

     CUMULATIVE VOLUME      L**3       RATES FOR THIS TIME STEP      L**3/T          PACKAGE NAME    
     ------------------                 ------------------------                     ----------------

           IN:                                      IN:
           ---                                      ---
              STO-SS =           0.0000                STO-SS =           0.0000     STORAGE         
              STO-SY =    62335756.2273                STO-SY =     3253933.4163     STORAGE         
                 WEL =           0.0000                   WEL =           0.0000     WEL_0           
                 DRN =           0.0000                   DRN =           0.0000     DRN_0           
                 RCH =     1636222.2069                   RCH =      267825.7017     RCH_0           

            TOTAL IN =    63971978.4341              TOTAL IN =     3521759.1180

          OUT:                                     OUT:
          ----                                     ----
              STO-SS =           0.0000                STO-SS =           0.0000     STORAGE         
              STO-SY =    43791632.0665                STO-SY =     1168916.9966     STORAGE         
                 WEL =      234358.1205                   WEL =       12448.8673     WEL_0           
                 DRN =    19945988.2471                   DRN =     2340393.2541     DRN_0           
                 RCH =           0.0000                   RCH =           0.0000     RCH_0           

           TOTAL OUT =    63971978.4341             TOTAL OUT =     3521759.1180

            IN - OUT =       3.7923E-06              IN - OUT =      -2.0256E-07

 PERCENT DISCREPANCY =           0.00     PERCENT DISCREPANCY =          -0.00




         TIME SUMMARY AT END OF TIME STEP    1 IN STRESS PERIOD   18
                          TIME STEP LENGTH =    1.00000    
                        STRESS PERIOD TIME =    1.00000    
                     TOTAL SIMULATION TIME =    18.0000    

end timestep


start timestep kper="19" kstp="1" mode="normal"


 OUTPUT CONTROL FOR STRESS PERIOD 19 IS REPEATED USING SETTINGS FROM A PREVIOUS STRESS PERIOD.


 STRESS PERIOD 19 IS TRANSIENT


 REUSING WELS FROM LAST STRESS PERIOD

 REUSING DRNS FROM LAST STRESS PERIOD

 REUSING RCHS FROM LAST STRESS PERIOD


  VOLUME BUDGET FOR ENTIRE MODEL AT END OF TIME STEP    1, STRESS PERIOD  19
  ---------------------------------------------------------------------------------------------------

     CUMULATIVE VOLUME      L**3       RATES FOR THIS TIME STEP      L**3/T          PACKAGE NAME    
     ------------------                 ------------------------                     ----------------

           IN:                                      IN:
           ---                                      ---
              STO-SS =           0.0000                STO-SS =           0.0000     STORAGE         
              STO-SY =    65561408.4569                STO-SY =     3225652.2296     STORAGE         
                 WEL =           0.0000                   WEL =           0.0000     WEL_0           
                 DRN =           0.0000                   DRN =           0.0000     DRN_0           
                 RCH =     1931447.0926                   RCH =      295224.8857     RCH_0           

            TOTAL IN =    67492855.5495              TOTAL IN =     3520877.1153

          OUT:                                     OUT:
          ----                                     ----
              STO-SS =           0.0000                STO-SS =           0.0000     STORAGE         
              STO-SY =    44877057.6874                STO-SY =     1085425.6209     STORAGE         
                 WEL =      246774.8501                   WEL =       12416.7296     WEL_0           
                 DRN =    22369023.0120                   DRN =     2423034.7649     DRN_0           
                 RCH =           0.0000                   RCH =           0.0000     RCH_0           

           TOTAL OUT =    67492855.5495             TOTAL OUT =     3520877.1153

            IN - OUT =       3.0249E-06              IN - OUT =      -7.7579E-07

 PERCENT DISCREPANCY =           0.00     PERCENT DISCREPANCY =          -0.00




         TIME SUMMARY AT END OF TIME STEP    1 IN STRESS PERIOD   19
                          TIME STEP LENGTH =    1.00000    
                        STRESS PERIOD TIME =    1.00000    
                     TOTAL SIMULATION TIME =    19.0000    

end timestep


start timestep kper="20" kstp="1" mode="normal"


 OUTPUT CONTROL FOR STRESS PERIOD 20 IS REPEATED USING SETTINGS FROM A PREVIOUS STRESS PERIOD.


 STRESS PERIOD 20 IS TRANSIENT


 REUSING WELS FROM LAST STRESS PERIOD

 REUSING DRNS FROM LAST STRESS PERIOD

 REUSING RCHS FROM LAST STRESS PERIOD


  VOLUME BUDGET FOR ENTIRE MODEL AT END OF TIME STEP    1, STRESS PERIOD  20
  ---------------------------------------------------------------------------------------------------

     CUMULATIVE VOLUME      L**3       RATES FOR THIS TIME STEP      L**3/T          PACKAGE NAME    
     ------------------                 ------------------------                     ----------------

           IN:                                      IN:
           ---                                      ---
              STO-SS =           0.0000                STO-SS =           0.0000     STORAGE         
              STO-SY =    68770630.6001                STO-SY =     3209222.1432     STORAGE         
                 WEL =           0.0000                   WEL =           0.0000     WEL_0           
                 DRN =           0.0000                   DRN =           0.0000     DRN_0           
                 RCH =     2253872.3121                   RCH =      322425.2196     RCH_0           

            TOTAL IN =    71024502.9122              TOTAL IN =     3531647.3627

          OUT:                                     OUT:
          ----                                     ----
              STO-SS =           0.0000                STO-SS =           0.0000     STORAGE         
              STO-SY =    45867056.4786                STO-SY =      989998.7912     STORAGE         
                 WEL =      259084.9828                   WEL =       12310.1327     WEL_0           
                 DRN =    24898361.4508                   DRN =     2529338.4388     DRN_0           
                 RCH =           0.0000                   RCH =           0.0000     RCH_0           

           TOTAL OUT =    71024502.9122             TOTAL OUT =     3531647.3627

            IN - OUT =       2.9951E-06              IN - OUT =      -3.8650E-08

 PERCENT DISCREPANCY =           0.00     PERCENT DISCREPANCY =          -0.00




         TIME SUMMARY AT END OF TIME STEP    1 IN STRESS PERIOD   20
                          TIME STEP LENGTH =    1.00000    
                        STRESS PERIOD TIME =    1.00000    
                     TOTAL SIMULATION TIME =    20.0000    

end timestep


start timestep kper="21" kstp="1" mode="normal"


 OUTPUT CONTROL FOR STRESS PERIOD 21 IS REPEATED USING SETTINGS FROM A PREVIOUS STRESS PERIOD.


 STRESS PERIOD 21 IS TRANSIENT


 REUSING WELS FROM LAST STRESS PERIOD

 REUSING DRNS FROM LAST STRESS PERIOD

 REUSING RCHS FROM LAST STRESS PERIOD


  VOLUME BUDGET FOR ENTIRE MODEL AT END OF TIME STEP    1, STRESS PERIOD  21
  ---------------------------------------------------------------------------------------------------

     CUMULATIVE VOLUME      L**3       RATES FOR THIS TIME STEP      L**3/T          PACKAGE NAME    
     ------------------                 ------------------------                     ----------------

           IN:                                      IN:
           ---                                      ---
              STO-SS =           0.0000                STO-SS =           0.0000     STORAGE         
              STO-SY =    71961129.0358                STO-SY =     3190498.4357     STORAGE         
                 WEL =           0.0000                   WEL =           0.0000     WEL_0           
                 DRN =           0.0000                   DRN =           0.0000     DRN_0           
                 RCH =     2603546.1341                   RCH =      349673.8220     RCH_0           

            TOTAL IN =    74564675.1699              TOTAL IN =     3540172.2577

          OUT:                                     OUT:
          ----                                     ----
              STO-SS =           0.0000                STO-SS =           0.0000     STORAGE         
              STO-SY =    46790095.7982                STO-SY =      923039.3196     STORAGE         
                 WEL =      271440.2515                   WEL =       12355.2688     WEL_0           
                 DRN =    27503139.1202                   DRN =     2604777.6694     DRN_0           
                 RCH =           0.0000                   RCH =           0.0000     RCH_0           

           TOTAL OUT =    74564675.1699             TOTAL OUT =     3540172.2577

            IN - OUT =       3.5167E-06              IN - OUT =       5.3504E-07

 PERCENT DISCREPANCY =           0.00     PERCENT DISCREPANCY =           0.00




         TIME SUMMARY AT END OF TIME STEP    1 IN STRESS PERIOD   21
                          TIME STEP LENGTH =    1.00000    
                        STRESS PERIOD TIME =    1.00000    
                     TOTAL SIMULATION TIME =    21.0000    

end timestep


start timestep kper="22" kstp="1" mode="normal"


 OUTPUT CONTROL FOR STRESS PERIOD 22 IS REPEATED USING SETTINGS FROM A PREVIOUS STRESS PERIOD.


 STRESS PERIOD 22 IS TRANSIENT


 REUSING WELS FROM LAST STRESS PERIOD

 REUSING DRNS FROM LAST STRESS PERIOD

 REUSING RCHS FROM LAST STRESS PERIOD


  VOLUME BUDGET FOR ENTIRE MODEL AT END OF TIME STEP    1, STRESS PERIOD  22
  ---------------------------------------------------------------------------------------------------

     CUMULATIVE VOLUME      L**3       RATES FOR THIS TIME STEP      L**3/T          PACKAGE NAME    
     ------------------                 ------------------------                     ----------------

           IN:                                      IN:
           ---                                      ---
              STO-SS =           0.0000                STO-SS =           0.0000     STORAGE         
              STO-SY =    75109639.2598                STO-SY =     3148510.2240     STORAGE         
                 WEL =           0.0000                   WEL =           0.0000     WEL_0           
                 DRN =           0.0000                   DRN =           0.0000     DRN_0           
                 RCH =     3008646.2539                   RCH =      405100.1198     RCH_0           

            TOTAL IN =    78118285.5137              TOTAL IN =     3553610.3438

          OUT:                                     OUT:
          ----                                     ----
              STO-SS =           0.0000                STO-SS =           0.0000     STORAGE         
              STO-SY =    47682085.0575                STO-SY =      891989.2593     STORAGE         
                 WEL =      283726.4090                   WEL =       12286.1574     WEL_0           
                 DRN =    30152474.0473                   DRN =     2649334.9271     DRN_0           
                 RCH =           0.0000                   RCH =           0.0000     RCH_0           

           TOTAL OUT =    78118285.5137             TOTAL OUT =     3553610.3438

            IN - OUT =       3.9339E-06              IN - OUT =       4.2841E-07

 PERCENT DISCREPANCY =           0.00     PERCENT DISCREPANCY =           0.00




         TIME SUMMARY AT END OF TIME STEP    1 IN STRESS PERIOD   22
                          TIME STEP LENGTH =    1.00000    
                        STRESS PERIOD TIME =    1.00000    
                     TOTAL SIMULATION TIME =    22.0000    

end timestep


start timestep kper="23" kstp="1" mode="normal"


 OUTPUT CONTROL FOR STRESS PERIOD 23 IS REPEATED USING SETTINGS FROM A PREVIOUS STRESS PERIOD.


 STRESS PERIOD 23 IS TRANSIENT


 REUSING WELS FROM LAST STRESS PERIOD

 REUSING DRNS FROM LAST STRESS PERIOD

 REUSING RCHS FROM LAST STRESS PERIOD


  VOLUME BUDGET FOR ENTIRE MODEL AT END OF TIME STEP    1, STRESS PERIOD  23
  ---------------------------------------------------------------------------------------------------

     CUMULATIVE VOLUME      L**3       RATES FOR THIS TIME STEP      L**3/T          PACKAGE NAME    
     ------------------                 ------------------------                     ----------------

           IN:                                      IN:
           ---                                      ---
              STO-SS =           0.0000                STO-SS =           0.0000     STORAGE         
              STO-SY =    78264050.7893                STO-SY =     3154411.5295     STORAGE         
                 WEL =           0.0000                   WEL =           0.0000     WEL_0           
                 DRN =           0.0000                   DRN =           0.0000     DRN_0           
                 RCH =     3417760.5857                   RCH =      409114.3318     RCH_0           

            TOTAL IN =    81681811.3750              TOTAL IN =     3563525.8612

          OUT:                                     OUT:
          ----                                     ----
              STO-SS =           0.0000                STO-SS =           0.0000     STORAGE         
              STO-SY =    48536045.1482                STO-SY =      853960.0907     STORAGE         
                 WEL =      295960.4269                   WEL =       12234.0179     WEL_0           
                 DRN =    32849805.7999                   DRN =     2697331.7526     DRN_0           
                 RCH =           0.0000                   RCH =           0.0000     RCH_0           

           TOTAL OUT =    81681811.3749             TOTAL OUT =     3563525.8612

            IN - OUT =       3.3528E-06              IN - OUT =      -5.8394E-07

 PERCENT DISCREPANCY =           0.00     PERCENT DISCREPANCY =          -0.00




         TIME SUMMARY AT END OF TIME STEP    1 IN STRESS PERIOD   23
                          TIME STEP LENGTH =    1.00000    
                        STRESS PERIOD TIME =    1.00000    
                     TOTAL SIMULATION TIME =    23.0000    

end timestep


start timestep kper="24" kstp="1" mode="normal"


 OUTPUT CONTROL FOR STRESS PERIOD 24 IS REPEATED USING SETTINGS FROM A PREVIOUS STRESS PERIOD.


 STRESS PERIOD 24 IS TRANSIENT


 REUSING WELS FROM LAST STRESS PERIOD

 REUSING DRNS FROM LAST STRESS PERIOD

 REUSING RCHS FROM LAST STRESS PERIOD


  VOLUME BUDGET FOR ENTIRE MODEL AT END OF TIME STEP    1, STRESS PERIOD  24
  ---------------------------------------------------------------------------------------------------

     CUMULATIVE VOLUME      L**3       RATES FOR THIS TIME STEP      L**3/T          PACKAGE NAME    
     ------------------                 ------------------------                     ----------------

           IN:                                      IN:
           ---                                      ---
              STO-SS =           0.0000                STO-SS =           0.0000     STORAGE         
              STO-SY =    81379714.6969                STO-SY =     3115663.9077     STORAGE         
                 WEL =           0.0000                   WEL =           0.0000     WEL_0           
                 DRN =           0.0000                   DRN =           0.0000     DRN_0           
                 RCH =     3871476.3457                   RCH =      453715.7600     RCH_0           

            TOTAL IN =    85251191.0427              TOTAL IN =     3569379.6677

          OUT:                                     OUT:
          ----                                     ----
              STO-SS =           0.0000                STO-SS =           0.0000     STORAGE         
              STO-SY =    49344654.6439                STO-SY =      808609.4957     STORAGE         
                 WEL =      308209.5322                   WEL =       12249.1053     WEL_0           
                 DRN =    35598326.8666                   DRN =     2748521.0667     DRN_0           
                 RCH =           0.0000                   RCH =           0.0000     RCH_0           

           TOTAL OUT =    85251191.0427             TOTAL OUT =     3569379.6677

            IN - OUT =       1.7881E-06              IN - OUT =      -1.5744E-06

 PERCENT DISCREPANCY =           0.00     PERCENT DISCREPANCY =          -0.00




         TIME SUMMARY AT END OF TIME STEP    1 IN STRESS PERIOD   24
                          TIME STEP LENGTH =    1.00000    
                        STRESS PERIOD TIME =    1.00000    
                     TOTAL SIMULATION TIME =    24.0000    

end timestep


start timestep kper="25" kstp="1" mode="normal"


 OUTPUT CONTROL FOR STRESS PERIOD 25 IS REPEATED USING SETTINGS FROM A PREVIOUS STRESS PERIOD.


 STRESS PERIOD 25 IS TRANSIENT


 REUSING WELS FROM LAST STRESS PERIOD

 REUSING DRNS FROM LAST STRESS PERIOD

 REUSING RCHS FROM LAST STRESS PERIOD


  VOLUME BUDGET FOR ENTIRE MODEL AT END OF TIME STEP    1, STRESS PERIOD  25
  ---------------------------------------------------------------------------------------------------

     CUMULATIVE VOLUME      L**3       RATES FOR THIS TIME STEP      L**3/T          PACKAGE NAME    
     ------------------                 ------------------------                     ----------------

           IN:                                      IN:
           ---                                      ---
              STO-SS =           0.0000                STO-SS =           0.0000     STORAGE         
              STO-SY =    84482983.0550                STO-SY =     3103268.3580     STORAGE         
                 WEL =           0.0000                   WEL =           0.0000     WEL_0           
                 DRN =           0.0000                   DRN =           0.0000     DRN_0           
                 RCH =     4354692.1044                   RCH =      483215.7586     RCH_0           

            TOTAL IN =    88837675.1593              TOTAL IN =     3586484.1166

          OUT:                                     OUT:
          ----                                     ----
              STO-SS =           0.0000                STO-SS =           0.0000     STORAGE         
              STO-SY =    50106623.7656                STO-SY =      761969.1217     STORAGE         
                 WEL =      320387.0827                   WEL =       12177.5505     WEL_0           
                 DRN =    38410664.3110                   DRN =     2812337.4444     DRN_0           
                 RCH =           0.0000                   RCH =           0.0000     RCH_0           

           TOTAL OUT =    88837675.1593             TOTAL OUT =     3586484.1166

            IN - OUT =       2.3842E-06              IN - OUT =       5.8115E-07

 PERCENT DISCREPANCY =           0.00     PERCENT DISCREPANCY =           0.00




         TIME SUMMARY AT END OF TIME STEP    1 IN STRESS PERIOD   25
                          TIME STEP LENGTH =    1.00000    
                        STRESS PERIOD TIME =    1.00000    
                     TOTAL SIMULATION TIME =    25.0000    

end timestep


start timestep kper="26" kstp="1" mode="normal"


 OUTPUT CONTROL FOR STRESS PERIOD 26 IS REPEATED USING SETTINGS FROM A PREVIOUS STRESS PERIOD.


 STRESS PERIOD 26 IS TRANSIENT


 REUSING WELS FROM LAST STRESS PERIOD

 REUSING DRNS FROM LAST STRESS PERIOD

 REUSING RCHS FROM LAST STRESS PERIOD


  VOLUME BUDGET FOR ENTIRE MODEL AT END OF TIME STEP    1, STRESS PERIOD  26
  ---------------------------------------------------------------------------------------------------

     CUMULATIVE VOLUME      L**3       RATES FOR THIS TIME STEP      L**3/T          PACKAGE NAME    
     ------------------                 ------------------------                     ----------------

           IN:                                      IN:
           ---                                      ---
              STO-SS =           0.0000                STO-SS =           0.0000     STORAGE         
              STO-SY =    87561113.9444                STO-SY =     3078130.8894     STORAGE         
                 WEL =           0.0000                   WEL =           0.0000     WEL_0           
                 DRN =           0.0000                   DRN =           0.0000     DRN_0           
                 RCH =     4864383.0980                   RCH =      509690.9936     RCH_0           

            TOTAL IN =    92425497.0423              TOTAL IN =     3587821.8830

          OUT:                                     OUT:
          ----                                     ----
              STO-SS =           0.0000                STO-SS =           0.0000     STORAGE         
              STO-SY =    50823756.9452                STO-SY =      717133.1796     STORAGE         
                 WEL =      332503.1296                   WEL =       12116.0469     WEL_0           
                 DRN =    41269236.9675                   DRN =     2858572.6565     DRN_0           
                 RCH =           0.0000                   RCH =           0.0000     RCH_0           

           TOTAL OUT =    92425497.0423             TOTAL OUT =     3587821.8830

            IN - OUT =       5.4389E-06              IN - OUT =       3.0492E-06

 PERCENT DISCREPANCY =           0.00     PERCENT DISCREPANCY =           0.00




         TIME SUMMARY AT END OF TIME STEP    1 IN STRESS PERIOD   26
                          TIME STEP LENGTH =    1.00000    
                        STRESS PERIOD TIME =    1.00000    
                     TOTAL SIMULATION TIME =    26.0000    

end timestep


start timestep kper="27" kstp="1" mode="normal"


 OUTPUT CONTROL FOR STRESS PERIOD 27 IS REPEATED USING SETTINGS FROM A PREVIOUS STRESS PERIOD.


 STRESS PERIOD 27 IS TRANSIENT


 REUSING WELS FROM LAST STRESS PERIOD

 REUSING DRNS FROM LAST STRESS PERIOD

 REUSING RCHS FROM LAST STRESS PERIOD


  VOLUME BUDGET FOR ENTIRE MODEL AT END OF TIME STEP    1, STRESS PERIOD  27
  ---------------------------------------------------------------------------------------------------

     CUMULATIVE VOLUME      L**3       RATES FOR THIS TIME STEP      L**3/T          PACKAGE NAME    
     ------------------                 ------------------------                     ----------------

           IN:                                      IN:
           ---                                      ---
              STO-SS =           0.0000                STO-SS =           0.0000     STORAGE         
              STO-SY =    90628318.0053                STO-SY =     3067204.0610     STORAGE         
                 WEL =           0.0000                   WEL =           0.0000     WEL_0           
                 DRN =           0.0000                   DRN =           0.0000     DRN_0           
                 RCH =     5391753.7189                   RCH =      527370.6209     RCH_0           

            TOTAL IN =    96020071.7242              TOTAL IN =     3594574.6818

          OUT:                                     OUT:
          ----                                     ----
              STO-SS =           0.0000                STO-SS =           0.0000     STORAGE         
              STO-SY =    51522125.0475                STO-SY =      698368.1023     STORAGE         
                 WEL =      344688.5032                   WEL =       12185.3736     WEL_0           
                 DRN =    44153258.1735                   DRN =     2884021.2060     DRN_0           
                 RCH =           0.0000                   RCH =           0.0000     RCH_0           

           TOTAL OUT =    96020071.7242             TOTAL OUT =     3594574.6818

            IN - OUT =       6.9439E-06              IN - OUT =       1.5255E-06

 PERCENT DISCREPANCY =           0.00     PERCENT DISCREPANCY =           0.00




         TIME SUMMARY AT END OF TIME STEP    1 IN STRESS PERIOD   27
                          TIME STEP LENGTH =    1.00000    
                        STRESS PERIOD TIME =    1.00000    
                     TOTAL SIMULATION TIME =    27.0000    

end timestep


start timestep kper="28" kstp="1" mode="normal"


 OUTPUT CONTROL FOR STRESS PERIOD 28 IS REPEATED USING SETTINGS FROM A PREVIOUS STRESS PERIOD.


 STRESS PERIOD 28 IS TRANSIENT


 REUSING WELS FROM LAST STRESS PERIOD

 REUSING DRNS FROM LAST STRESS PERIOD

 REUSING RCHS FROM LAST STRESS PERIOD


  VOLUME BUDGET FOR ENTIRE MODEL AT END OF TIME STEP    1, STRESS PERIOD  28
  ---------------------------------------------------------------------------------------------------

     CUMULATIVE VOLUME      L**3       RATES FOR THIS TIME STEP      L**3/T          PACKAGE NAME    
     ------------------                 ------------------------                     ----------------

           IN:                                      IN:
           ---                                      ---
              STO-SS =           0.0000                STO-SS =           0.0000     STORAGE         
              STO-SY =    93658402.1178                STO-SY =     3030084.1125     STORAGE         
                 WEL =           0.0000                   WEL =           0.0000     WEL_0           
                 DRN =           0.0000                   DRN =           0.0000     DRN_0           
                 RCH =     5955203.4558                   RCH =      563449.7369     RCH_0           

            TOTAL IN =    99613605.5735              TOTAL IN =     3593533.8494

          OUT:                                     OUT:
          ----                                     ----
              STO-SS =           0.0000                STO-SS =           0.0000     STORAGE         
              STO-SY =    52194668.1602                STO-SY =      672543.1127     STORAGE         
                 WEL =      356854.9945                   WEL =       12166.4913     WEL_0           
                 DRN =    47062082.4188                   DRN =     2908824.2453     DRN_0           
                 RCH =           0.0000                   RCH =           0.0000     RCH_0           

           TOTAL OUT =    99613605.5735             TOTAL OUT =     3593533.8494

            IN - OUT =       7.1377E-06              IN - OUT =       1.7369E-07

 PERCENT DISCREPANCY =           0.00     PERCENT DISCREPANCY =           0.00




         TIME SUMMARY AT END OF TIME STEP    1 IN STRESS PERIOD   28
                          TIME STEP LENGTH =    1.00000    
                        STRESS PERIOD TIME =    1.00000    
                     TOTAL SIMULATION TIME =    28.0000    

end timestep


start timestep kper="29" kstp="1" mode="normal"


 OUTPUT CONTROL FOR STRESS PERIOD 29 IS REPEATED USING SETTINGS FROM A PREVIOUS STRESS PERIOD.


 STRESS PERIOD 29 IS TRANSIENT


 REUSING WELS FROM LAST STRESS PERIOD

 REUSING DRNS FROM LAST STRESS PERIOD

 REUSING RCHS FROM LAST STRESS PERIOD


  VOLUME BUDGET FOR ENTIRE MODEL AT END OF TIME STEP    1, STRESS PERIOD  29
  ---------------------------------------------------------------------------------------------------

     CUMULATIVE VOLUME      L**3       RATES FOR THIS TIME STEP      L**3/T          PACKAGE NAME    
     ------------------                 ------------------------                     ----------------

           IN:                                      IN:
           ---                                      ---
              STO-SS =           0.0000                STO-SS =           0.0000     STORAGE         
              STO-SY =    96688820.1286                STO-SY =     3030418.0109     STORAGE         
                 WEL =           0.0000                   WEL =           0.0000     WEL_0           
                 DRN =           0.0000                   DRN =           0.0000     DRN_0           
                 RCH =     6533076.1483                   RCH =      577872.6925     RCH_0           

            TOTAL IN =   103221896.2769              TOTAL IN =     3608290.7034

          OUT:                                     OUT:
          ----                                     ----
              STO-SS =           0.0000                STO-SS =           0.0000     STORAGE         
              STO-SY =    52815803.4261                STO-SY =      621135.2658     STORAGE         
                 WEL =      368992.0623                   WEL =       12137.0678     WEL_0           
                 DRN =    50037100.7886                   DRN =     2975018.3698     DRN_0           
                 RCH =           0.0000                   RCH =           0.0000     RCH_0           

           TOTAL OUT =   103221896.2769             TOTAL OUT =     3608290.7034

            IN - OUT =       7.8678E-06              IN - OUT =       7.3016E-07

 PERCENT DISCREPANCY =           0.00     PERCENT DISCREPANCY =           0.00




         TIME SUMMARY AT END OF TIME STEP    1 IN STRESS PERIOD   29
                          TIME STEP LENGTH =    1.00000    
                        STRESS PERIOD TIME =    1.00000    
                     TOTAL SIMULATION TIME =    29.0000    

end timestep


start timestep kper="30" kstp="1" mode="normal"


 OUTPUT CONTROL FOR STRESS PERIOD 30 IS REPEATED USING SETTINGS FROM A PREVIOUS STRESS PERIOD.


 STRESS PERIOD 30 IS TRANSIENT


 REUSING WELS FROM LAST STRESS PERIOD

 REUSING DRNS FROM LAST STRESS PERIOD

 REUSING RCHS FROM LAST STRESS PERIOD


  VOLUME BUDGET FOR ENTIRE MODEL AT END OF TIME STEP    1, STRESS PERIOD  30
  ---------------------------------------------------------------------------------------------------

     CUMULATIVE VOLUME      L**3       RATES FOR THIS TIME STEP      L**3/T          PACKAGE NAME    
     ------------------                 ------------------------                     ----------------

           IN:                                      IN:
           ---                                      ---
              STO-SS =           0.0000                STO-SS =           0.0000     STORAGE         
              STO-SY =    99694984.8716                STO-SY =     3006164.7430     STORAGE         
                 WEL =           0.0000                   WEL =           0.0000     WEL_0           
                 DRN =           0.0000                   DRN =           0.0000     DRN_0           
                 RCH =     7130943.8521                   RCH =      597867.7038     RCH_0           

            TOTAL IN =   106825928.7237              TOTAL IN =     3604032.4468

          OUT:                                     OUT:
          ----                                     ----
              STO-SS =           0.0000                STO-SS =           0.0000     STORAGE         
              STO-SY =    53400341.2535                STO-SY =      584537.8274     STORAGE         
                 WEL =      381152.2122                   WEL =       12160.1499     WEL_0           
                 DRN =    53044435.2581                   DRN =     3007334.4695     DRN_0           
                 RCH =           0.0000                   RCH =           0.0000     RCH_0           

           TOTAL OUT =   106825928.7237             TOTAL OUT =     3604032.4468

            IN - OUT =       9.5218E-06              IN - OUT =       1.6685E-06

 PERCENT DISCREPANCY =           0.00     PERCENT DISCREPANCY =           0.00




         TIME SUMMARY AT END OF TIME STEP    1 IN STRESS PERIOD   30
                          TIME STEP LENGTH =    1.00000    
                        STRESS PERIOD TIME =    1.00000    
                     TOTAL SIMULATION TIME =    30.0000    

end timestep


start timestep kper="31" kstp="1" mode="normal"


 OUTPUT CONTROL FOR STRESS PERIOD 31 IS REPEATED USING SETTINGS FROM A PREVIOUS STRESS PERIOD.


 STRESS PERIOD 31 IS TRANSIENT


 REUSING WELS FROM LAST STRESS PERIOD

 REUSING DRNS FROM LAST STRESS PERIOD

 REUSING RCHS FROM LAST STRESS PERIOD


  VOLUME BUDGET FOR ENTIRE MODEL AT END OF TIME STEP    1, STRESS PERIOD  31
  ---------------------------------------------------------------------------------------------------

     CUMULATIVE VOLUME      L**3       RATES FOR THIS TIME STEP      L**3/T          PACKAGE NAME    
     ------------------                 ------------------------                     ----------------

           IN:                                      IN:
           ---                                      ---
              STO-SS =           0.0000                STO-SS =           0.0000     STORAGE         
              STO-SY =   102692378.3922                STO-SY =     2997393.5206     STORAGE         
                 WEL =           0.0000                   WEL =           0.0000     WEL_0           
                 DRN =           0.0000                   DRN =           0.0000     DRN_0           
                 RCH =     7740046.7692                   RCH =      609102.9171     RCH_0           

            TOTAL IN =   110432425.1614              TOTAL IN =     3606496.4377

          OUT:                                     OUT:
          ----                                     ----
              STO-SS =           0.0000                STO-SS =           0.0000     STORAGE         
              STO-SY =    53957213.2988                STO-SY =      556872.0453     STORAGE         
                 WEL =      393304.4073                   WEL =       12152.1951     WEL_0           
                 DRN =    56081907.4553                   DRN =     3037472.1972     DRN_0           
                 RCH =           0.0000                   RCH =           0.0000     RCH_0           

           TOTAL OUT =   110432425.1614             TOTAL OUT =     3606496.4377

            IN - OUT =       8.3596E-06              IN - OUT =      -1.1586E-06

 PERCENT DISCREPANCY =           0.00     PERCENT DISCREPANCY =          -0.00




         TIME SUMMARY AT END OF TIME STEP    1 IN STRESS PERIOD   31
                          TIME STEP LENGTH =    1.00000    
                        STRESS PERIOD TIME =    1.00000    
                     TOTAL SIMULATION TIME =    31.0000    

end timestep


start timestep kper="32" kstp="1" mode="normal"


 OUTPUT CONTROL FOR STRESS PERIOD 32 IS REPEATED USING SETTINGS FROM A PREVIOUS STRESS PERIOD.


 STRESS PERIOD 32 IS TRANSIENT


 REUSING WELS FROM LAST STRESS PERIOD

 REUSING DRNS FROM LAST STRESS PERIOD

 REUSING RCHS FROM LAST STRESS PERIOD


  VOLUME BUDGET FOR ENTIRE MODEL AT END OF TIME STEP    1, STRESS PERIOD  32
  ---------------------------------------------------------------------------------------------------

     CUMULATIVE VOLUME      L**3       RATES FOR THIS TIME STEP      L**3/T          PACKAGE NAME    
     ------------------                 ------------------------                     ----------------

           IN:                                      IN:
           ---                                      ---
              STO-SS =           0.0000                STO-SS =           0.0000     STORAGE         
              STO-SY =   105665933.1594                STO-SY =     2973554.7672     STORAGE         
                 WEL =           0.0000                   WEL =           0.0000     WEL_0           
                 DRN =           0.0000                   DRN =           0.0000     DRN_0           
                 RCH =     8374311.0978                   RCH =      634264.3286     RCH_0           

            TOTAL IN =   114040244.2572              TOTAL IN =     3607819.0958

          OUT:                                     OUT:
          ----                                     ----
              STO-SS =           0.0000                STO-SS =           0.0000     STORAGE         
              STO-SY =    54482965.2818                STO-SY =      525751.9829     STORAGE         
                 WEL =      406145.7748                   WEL =       12841.3675     WEL_0           
                 DRN =    59151133.2007                   DRN =     3069225.7454     DRN_0           
                 RCH =           0.0000                   RCH =           0.0000     RCH_0           

           TOTAL OUT =   114040244.2572             TOTAL OUT =     3607819.0958

            IN - OUT =       8.4937E-06              IN - OUT =       1.3551E-07

 PERCENT DISCREPANCY =           0.00     PERCENT DISCREPANCY =           0.00




         TIME SUMMARY AT END OF TIME STEP    1 IN STRESS PERIOD   32
                          TIME STEP LENGTH =    1.00000    
                        STRESS PERIOD TIME =    1.00000    
                     TOTAL SIMULATION TIME =    32.0000    

end timestep


start timestep kper="33" kstp="1" mode="normal"


 OUTPUT CONTROL FOR STRESS PERIOD 33 IS REPEATED USING SETTINGS FROM A PREVIOUS STRESS PERIOD.


 STRESS PERIOD 33 IS TRANSIENT


 REUSING WELS FROM LAST STRESS PERIOD

 REUSING DRNS FROM LAST STRESS PERIOD

 REUSING RCHS FROM LAST STRESS PERIOD


  VOLUME BUDGET FOR ENTIRE MODEL AT END OF TIME STEP    1, STRESS PERIOD  33
  ---------------------------------------------------------------------------------------------------

     CUMULATIVE VOLUME      L**3       RATES FOR THIS TIME STEP      L**3/T          PACKAGE NAME    
     ------------------                 ------------------------                     ----------------

           IN:                                      IN:
           ---                                      ---
              STO-SS =           0.0000                STO-SS =           0.0000     STORAGE         
              STO-SY =   108636146.1608                STO-SY =     2970213.0013     STORAGE         
                 WEL =           0.0000                   WEL =           0.0000     WEL_0           
                 DRN =           0.0000                   DRN =           0.0000     DRN_0           
                 RCH =     9019381.5544                   RCH =      645070.4566     RCH_0           

            TOTAL IN =   117655527.7152              TOTAL IN =     3615283.4580

          OUT:                                     OUT:
          ----                                     ----
              STO-SS =           0.0000                STO-SS =           0.0000     STORAGE         
              STO-SY =    54993958.7767                STO-SY =      510993.4950     STORAGE         
                 WEL =      419056.7721                   WEL =       12910.9973     WEL_0           
                 DRN =    62242512.1663                   DRN =     3091378.9657     DRN_0           
                 RCH =           0.0000                   RCH =           0.0000     RCH_0           

           TOTAL OUT =   117655527.7152             TOTAL OUT =     3615283.4580

            IN - OUT =       8.4043E-06              IN - OUT =      -8.7079E-08

 PERCENT DISCREPANCY =           0.00     PERCENT DISCREPANCY =          -0.00




         TIME SUMMARY AT END OF TIME STEP    1 IN STRESS PERIOD   33
                          TIME STEP LENGTH =    1.00000    
                        STRESS PERIOD TIME =    1.00000    
                     TOTAL SIMULATION TIME =    33.0000    

end timestep


start timestep kper="34" kstp="1" mode="normal"


 OUTPUT CONTROL FOR STRESS PERIOD 34 IS REPEATED USING SETTINGS FROM A PREVIOUS STRESS PERIOD.


 STRESS PERIOD 34 IS TRANSIENT


 REUSING WELS FROM LAST STRESS PERIOD

 REUSING DRNS FROM LAST STRESS PERIOD

 REUSING RCHS FROM LAST STRESS PERIOD


  VOLUME BUDGET FOR ENTIRE MODEL AT END OF TIME STEP    1, STRESS PERIOD  34
  ---------------------------------------------------------------------------------------------------

     CUMULATIVE VOLUME      L**3       RATES FOR THIS TIME STEP      L**3/T          PACKAGE NAME    
     ------------------                 ------------------------                     ----------------

           IN:                                      IN:
           ---                                      ---
              STO-SS =           0.0000                STO-SS =           0.0000     STORAGE         
              STO-SY =   111574550.5426                STO-SY =     2938404.3818     STORAGE         
                 WEL =           0.0000                   WEL =           0.0000     WEL_0           
                 DRN =           0.0000                   DRN =           0.0000     DRN_0           
                 RCH =     9693967.3982                   RCH =      674585.8438     RCH_0           

            TOTAL IN =   121268517.9408              TOTAL IN =     3612990.2256

          OUT:                                     OUT:
          ----                                     ----
              STO-SS =           0.0000                STO-SS =           0.0000     STORAGE         
              STO-SY =    55483976.6368                STO-SY =      490017.8601     STORAGE         
                 WEL =      431909.3781                   WEL =       12852.6060     WEL_0           
                 DRN =    65352631.9258                   DRN =     3110119.7595     DRN_0           
                 RCH =           0.0000                   RCH =           0.0000     RCH_0           

           TOTAL OUT =   121268517.9408             TOTAL OUT =     3612990.2256

            IN - OUT =       1.1921E-05              IN - OUT =       3.5181E-06

 PERCENT DISCREPANCY =           0.00     PERCENT DISCREPANCY =           0.00




         TIME SUMMARY AT END OF TIME STEP    1 IN STRESS PERIOD   34
                          TIME STEP LENGTH =    1.00000    
                        STRESS PERIOD TIME =    1.00000    
                     TOTAL SIMULATION TIME =    34.0000    

end timestep


start timestep kper="35" kstp="1" mode="normal"


 OUTPUT CONTROL FOR STRESS PERIOD 35 IS REPEATED USING SETTINGS FROM A PREVIOUS STRESS PERIOD.


 STRESS PERIOD 35 IS TRANSIENT


 REUSING WELS FROM LAST STRESS PERIOD

 REUSING DRNS FROM LAST STRESS PERIOD

 REUSING RCHS FROM LAST STRESS PERIOD


  VOLUME BUDGET FOR ENTIRE MODEL AT END OF TIME STEP    1, STRESS PERIOD  35
  ---------------------------------------------------------------------------------------------------

     CUMULATIVE VOLUME      L**3       RATES FOR THIS TIME STEP      L**3/T          PACKAGE NAME    
     ------------------                 ------------------------                     ----------------

           IN:                                      IN:
           ---                                      ---
              STO-SS =           0.0000                STO-SS =           0.0000     STORAGE         
              STO-SY =   114513722.6042                STO-SY =     2939172.0616     STORAGE         
                 WEL =           0.0000                   WEL =           0.0000     WEL_0           
                 DRN =           0.0000                   DRN =           0.0000     DRN_0           
                 RCH =    10378217.4980                   RCH =      684250.0998     RCH_0           

            TOTAL IN =   124891940.1022              TOTAL IN =     3623422.1614

          OUT:                                     OUT:
          ----                                     ----
              STO-SS =           0.0000                STO-SS =           0.0000     STORAGE         
              STO-SY =    55961838.7879                STO-SY =      477862.1511     STORAGE         
                 WEL =      444680.5348                   WEL =       12771.1567     WEL_0           
                 DRN =    68485420.7794                   DRN =     3132788.8536     DRN_0           
                 RCH =           0.0000                   RCH =           0.0000     RCH_0           

           TOTAL OUT =   124891940.1022             TOTAL OUT =     3623422.1614

            IN - OUT =       1.0699E-05              IN - OUT =      -1.2340E-06

 PERCENT DISCREPANCY =           0.00     PERCENT DISCREPANCY =          -0.00




         TIME SUMMARY AT END OF TIME STEP    1 IN STRESS PERIOD   35
                          TIME STEP LENGTH =    1.00000    
                        STRESS PERIOD TIME =    1.00000    
                     TOTAL SIMULATION TIME =    35.0000    

end timestep


start timestep kper="36" kstp="1" mode="normal"


 OUTPUT CONTROL FOR STRESS PERIOD 36 IS REPEATED USING SETTINGS FROM A PREVIOUS STRESS PERIOD.


 STRESS PERIOD 36 IS TRANSIENT


 REUSING WELS FROM LAST STRESS PERIOD

 REUSING DRNS FROM LAST STRESS PERIOD

 REUSING RCHS FROM LAST STRESS PERIOD


  VOLUME BUDGET FOR ENTIRE MODEL AT END OF TIME STEP    1, STRESS PERIOD  36
  ---------------------------------------------------------------------------------------------------

     CUMULATIVE VOLUME      L**3       RATES FOR THIS TIME STEP      L**3/T          PACKAGE NAME    
     ------------------                 ------------------------                     ----------------

           IN:                                      IN:
           ---                                      ---
              STO-SS =           0.0000                STO-SS =           0.0000     STORAGE         
              STO-SY =   117424149.0486                STO-SY =     2910426.4445     STORAGE         
                 WEL =           0.0000                   WEL =           0.0000     WEL_0           
                 DRN =           0.0000                   DRN =           0.0000     DRN_0           
                 RCH =    11084280.0622                   RCH =      706062.5641     RCH_0           

            TOTAL IN =   128508429.1108              TOTAL IN =     3616489.0086

          OUT:                                     OUT:
          ----                                     ----
              STO-SS =           0.0000                STO-SS =           0.0000     STORAGE         
              STO-SY =    56424735.5134                STO-SY =      462896.7255     STORAGE         
                 WEL =      457535.6690                   WEL =       12855.1342     WEL_0           
                 DRN =    71626157.9283                   DRN =     3140737.1489     DRN_0           
                 RCH =           0.0000                   RCH =           0.0000     RCH_0           

           TOTAL OUT =   128508429.1108             TOTAL OUT =     3616489.0086

            IN - OUT =       1.0744E-05              IN - OUT =       5.3085E-08

 PERCENT DISCREPANCY =           0.00     PERCENT DISCREPANCY =           0.00




         TIME SUMMARY AT END OF TIME STEP    1 IN STRESS PERIOD   36
                          TIME STEP LENGTH =    1.00000    
                        STRESS PERIOD TIME =    1.00000    
                     TOTAL SIMULATION TIME =    36.0000    

end timestep


start timestep kper="37" kstp="1" mode="normal"


 OUTPUT CONTROL FOR STRESS PERIOD 37 IS REPEATED USING SETTINGS FROM A PREVIOUS STRESS PERIOD.


 STRESS PERIOD 37 IS TRANSIENT


 REUSING WELS FROM LAST STRESS PERIOD

 REUSING DRNS FROM LAST STRESS PERIOD

 REUSING RCHS FROM LAST STRESS PERIOD


  VOLUME BUDGET FOR ENTIRE MODEL AT END OF TIME STEP    1, STRESS PERIOD  37
  ---------------------------------------------------------------------------------------------------

     CUMULATIVE VOLUME      L**3       RATES FOR THIS TIME STEP      L**3/T          PACKAGE NAME    
     ------------------                 ------------------------                     ----------------

           IN:                                      IN:
           ---                                      ---
              STO-SS =           0.0000                STO-SS =           0.0000     STORAGE         
              STO-SY =   120326164.2777                STO-SY =     2902015.2291     STORAGE         
                 WEL =           0.0000                   WEL =           0.0000     WEL_0           
                 DRN =           0.0000                   DRN =           0.0000     DRN_0           
                 RCH =    11809028.1761                   RCH =      724748.1139     RCH_0           

            TOTAL IN =   132135192.4538              TOTAL IN =     3626763.3430

          OUT:                                     OUT:
          ----                                     ----
              STO-SS =           0.0000                STO-SS =           0.0000     STORAGE         
              STO-SY =    56877565.8501                STO-SY =      452830.3366     STORAGE         
                 WEL =      470393.6258                   WEL =       12857.9568     WEL_0           
                 DRN =    74787232.9779                   DRN =     3161075.0496     DRN_0           
                 RCH =           0.0000                   RCH =           0.0000     RCH_0           

           TOTAL OUT =   132135192.4538             TOTAL OUT =     3626763.3430

            IN - OUT =       1.0446E-05              IN - OUT =      -2.9383E-07

 PERCENT DISCREPANCY =           0.00     PERCENT DISCREPANCY =          -0.00




         TIME SUMMARY AT END OF TIME STEP    1 IN STRESS PERIOD   37
                          TIME STEP LENGTH =    1.00000    
                        STRESS PERIOD TIME =    1.00000    
                     TOTAL SIMULATION TIME =    37.0000    

end timestep


start timestep kper="38" kstp="1" mode="normal"


 OUTPUT CONTROL FOR STRESS PERIOD 38 IS REPEATED USING SETTINGS FROM A PREVIOUS STRESS PERIOD.


 STRESS PERIOD 38 IS TRANSIENT


 REUSING WELS FROM LAST STRESS PERIOD

 REUSING DRNS FROM LAST STRESS PERIOD

 REUSING RCHS FROM LAST STRESS PERIOD


  VOLUME BUDGET FOR ENTIRE MODEL AT END OF TIME STEP    1, STRESS PERIOD  38
  ---------------------------------------------------------------------------------------------------

     CUMULATIVE VOLUME      L**3       RATES FOR THIS TIME STEP      L**3/T          PACKAGE NAME    
     ------------------                 ------------------------                     ----------------

           IN:                                      IN:
           ---                                      ---
              STO-SS =           0.0000                STO-SS =           0.0000     STORAGE         
              STO-SY =   123209038.9803                STO-SY =     2882874.7025     STORAGE         
                 WEL =           0.0000                   WEL =           0.0000     WEL_0           
                 DRN =           0.0000                   DRN =           0.0000     DRN_0           
                 RCH =    12546923.7049                   RCH =      737895.5288     RCH_0           

            TOTAL IN =   135755962.6851              TOTAL IN =     3620770.2313

          OUT:                                     OUT:
          ----                                     ----
              STO-SS =           0.0000                STO-SS =           0.0000     STORAGE         
              STO-SY =    57321911.0092                STO-SY =      444345.1591     STORAGE         
                 WEL =      483185.3650                   WEL =       12791.7391     WEL_0           
                 DRN =    77950866.3109                   DRN =     3163633.3330     DRN_0           
                 RCH =           0.0000                   RCH =           0.0000     RCH_0           

           TOTAL OUT =   135755962.6851             TOTAL OUT =     3620770.2313

            IN - OUT =       9.1791E-06              IN - OUT =      -1.2806E-06

 PERCENT DISCREPANCY =           0.00     PERCENT DISCREPANCY =          -0.00




         TIME SUMMARY AT END OF TIME STEP    1 IN STRESS PERIOD   38
                          TIME STEP LENGTH =    1.00000    
                        STRESS PERIOD TIME =    1.00000    
                     TOTAL SIMULATION TIME =    38.0000    

end timestep


start timestep kper="39" kstp="1" mode="normal"


 OUTPUT CONTROL FOR STRESS PERIOD 39 IS REPEATED USING SETTINGS FROM A PREVIOUS STRESS PERIOD.


 STRESS PERIOD 39 IS TRANSIENT


 REUSING WELS FROM LAST STRESS PERIOD

 REUSING DRNS FROM LAST STRESS PERIOD

 REUSING RCHS FROM LAST STRESS PERIOD


  VOLUME BUDGET FOR ENTIRE MODEL AT END OF TIME STEP    1, STRESS PERIOD  39
  ---------------------------------------------------------------------------------------------------

     CUMULATIVE VOLUME      L**3       RATES FOR THIS TIME STEP      L**3/T          PACKAGE NAME    
     ------------------                 ------------------------                     ----------------

           IN:                                      IN:
           ---                                      ---
              STO-SS =           0.0000                STO-SS =           0.0000     STORAGE         
              STO-SY =   126088056.1845                STO-SY =     2879017.2043     STORAGE         
                 WEL =           0.0000                   WEL =           0.0000     WEL_0           
                 DRN =           0.0000                   DRN =           0.0000     DRN_0           
                 RCH =    13292321.5103                   RCH =      745397.8055     RCH_0           

            TOTAL IN =   139380377.6949              TOTAL IN =     3624415.0097

          OUT:                                     OUT:
          ----                                     ----
              STO-SS =           0.0000                STO-SS =           0.0000     STORAGE         
              STO-SY =    57748402.7601                STO-SY =      426491.7509     STORAGE         
                 WEL =      496076.7821                   WEL =       12891.4171     WEL_0           
                 DRN =    81135898.1526                   DRN =     3185031.8417     DRN_0           
                 RCH =           0.0000                   RCH =           0.0000     RCH_0           

           TOTAL OUT =   139380377.6948             TOTAL OUT =     3624415.0097

            IN - OUT =       1.0818E-05              IN - OUT =       1.6410E-06

 PERCENT DISCREPANCY =           0.00     PERCENT DISCREPANCY =           0.00




         TIME SUMMARY AT END OF TIME STEP    1 IN STRESS PERIOD   39
                          TIME STEP LENGTH =    1.00000    
                        STRESS PERIOD TIME =    1.00000    
                     TOTAL SIMULATION TIME =    39.0000    

end timestep


start timestep kper="40" kstp="1" mode="normal"


 OUTPUT CONTROL FOR STRESS PERIOD 40 IS REPEATED USING SETTINGS FROM A PREVIOUS STRESS PERIOD.


 STRESS PERIOD 40 IS TRANSIENT


 REUSING WELS FROM LAST STRESS PERIOD

 REUSING DRNS FROM LAST STRESS PERIOD

 REUSING RCHS FROM LAST STRESS PERIOD


  VOLUME BUDGET FOR ENTIRE MODEL AT END OF TIME STEP    1, STRESS PERIOD  40
  ---------------------------------------------------------------------------------------------------

     CUMULATIVE VOLUME      L**3       RATES FOR THIS TIME STEP      L**3/T          PACKAGE NAME    
     ------------------                 ------------------------                     ----------------

           IN:                                      IN:
           ---                                      ---
              STO-SS =           0.0000                STO-SS =           0.0000     STORAGE         
              STO-SY =   128937820.9056                STO-SY =     2849764.7211     STORAGE         
                 WEL =           0.0000                   WEL =           0.0000     WEL_0           
                 DRN =           0.0000                   DRN =           0.0000     DRN_0           
                 RCH =    14057298.4926                   RCH =      764976.9823     RCH_0           

            TOTAL IN =   142995119.3982              TOTAL IN =     3614741.7033

          OUT:                                     OUT:
          ----                                     ----
              STO-SS =           0.0000                STO-SS =           0.0000     STORAGE         
              STO-SY =    58150433.3471                STO-SY =      402030.5870     STORAGE         
                 WEL =      508934.6463                   WEL =       12857.8642     WEL_0           
                 DRN =    84335751.4048                   DRN =     3199853.2521     DRN_0           
                 RCH =           0.0000                   RCH =           0.0000     RCH_0           

           TOTAL OUT =   142995119.3982             TOTAL OUT =     3614741.7033

            IN - OUT =       1.0252E-05              IN - OUT =      -5.7090E-07

 PERCENT DISCREPANCY =           0.00     PERCENT DISCREPANCY =          -0.00




         TIME SUMMARY AT END OF TIME STEP    1 IN STRESS PERIOD   40
                          TIME STEP LENGTH =    1.00000    
                        STRESS PERIOD TIME =    1.00000    
                     TOTAL SIMULATION TIME =    40.0000    

end timestep


start timestep kper="41" kstp="1" mode="normal"


 OUTPUT CONTROL FOR STRESS PERIOD 41 IS REPEATED USING SETTINGS FROM A PREVIOUS STRESS PERIOD.


 STRESS PERIOD 41 IS TRANSIENT


 REUSING WELS FROM LAST STRESS PERIOD

 REUSING DRNS FROM LAST STRESS PERIOD

 REUSING RCHS FROM LAST STRESS PERIOD


  VOLUME BUDGET FOR ENTIRE MODEL AT END OF TIME STEP    1, STRESS PERIOD  41
  ---------------------------------------------------------------------------------------------------

     CUMULATIVE VOLUME      L**3       RATES FOR THIS TIME STEP      L**3/T          PACKAGE NAME    
     ------------------                 ------------------------                     ----------------

           IN:                                      IN:
           ---                                      ---
              STO-SS =           0.0000                STO-SS =           0.0000     STORAGE         
              STO-SY =   131793387.6230                STO-SY =     2855566.7174     STORAGE         
                 WEL =           0.0000                   WEL =           0.0000     WEL_0           
                 DRN =           0.0000                   DRN =           0.0000     DRN_0           
                 RCH =    14812433.1156                   RCH =      755134.6230     RCH_0           

            TOTAL IN =   146605820.7387              TOTAL IN =     3610701.3404

          OUT:                                     OUT:
          ----                                     ----
              STO-SS =           0.0000                STO-SS =           0.0000     STORAGE         
              STO-SY =    58543539.9938                STO-SY =      393106.6467     STORAGE         
                 WEL =      521743.1858                   WEL =       12808.5395     WEL_0           
                 DRN =    87540537.5591                   DRN =     3204786.1543     DRN_0           
                 RCH =           0.0000                   RCH =           0.0000     RCH_0           

           TOTAL OUT =   146605820.7386             TOTAL OUT =     3610701.3404

            IN - OUT =       9.5963E-06              IN - OUT =      -6.8359E-07

 PERCENT DISCREPANCY =           0.00     PERCENT DISCREPANCY =          -0.00




         TIME SUMMARY AT END OF TIME STEP    1 IN STRESS PERIOD   41
                          TIME STEP LENGTH =    1.00000    
                        STRESS PERIOD TIME =    1.00000    
                     TOTAL SIMULATION TIME =    41.0000    

end timestep


start timestep kper="42" kstp="1" mode="normal"


 OUTPUT CONTROL FOR STRESS PERIOD 42 IS REPEATED USING SETTINGS FROM A PREVIOUS STRESS PERIOD.


 STRESS PERIOD 42 IS TRANSIENT


 REUSING WELS FROM LAST STRESS PERIOD

 REUSING DRNS FROM LAST STRESS PERIOD

 REUSING RCHS FROM LAST STRESS PERIOD


  VOLUME BUDGET FOR ENTIRE MODEL AT END OF TIME STEP    1, STRESS PERIOD  42
  ---------------------------------------------------------------------------------------------------

     CUMULATIVE VOLUME      L**3       RATES FOR THIS TIME STEP      L**3/T          PACKAGE NAME    
     ------------------                 ------------------------                     ----------------

           IN:                                      IN:
           ---                                      ---
              STO-SS =           0.0000                STO-SS =           0.0000     STORAGE         
              STO-SY =   134621385.4210                STO-SY =     2827997.7979     STORAGE         
                 WEL =           0.0000                   WEL =           0.0000     WEL_0           
                 DRN =           0.0000                   DRN =           0.0000     DRN_0           
                 RCH =    15587851.5650                   RCH =      775418.4494     RCH_0           

            TOTAL IN =   150209236.9859              TOTAL IN =     3603416.2473

          OUT:                                     OUT:
          ----                                     ----
              STO-SS =           0.0000                STO-SS =           0.0000     STORAGE         
              STO-SY =    58913555.0299                STO-SY =      370015.0361     STORAGE         
                 WEL =      534540.7781                   WEL =       12797.5923     WEL_0           
                 DRN =    90761141.1780                   DRN =     3220603.6189     DRN_0           
                 RCH =           0.0000                   RCH =           0.0000     RCH_0           

           TOTAL OUT =   150209236.9859             TOTAL OUT =     3603416.2473

            IN - OUT =       9.4771E-06              IN - OUT =      -8.8941E-08

 PERCENT DISCREPANCY =           0.00     PERCENT DISCREPANCY =          -0.00




         TIME SUMMARY AT END OF TIME STEP    1 IN STRESS PERIOD   42
                          TIME STEP LENGTH =    1.00000    
                        STRESS PERIOD TIME =    1.00000    
                     TOTAL SIMULATION TIME =    42.0000    

end timestep


start timestep kper="43" kstp="1" mode="normal"


 OUTPUT CONTROL FOR STRESS PERIOD 43 IS REPEATED USING SETTINGS FROM A PREVIOUS STRESS PERIOD.


 STRESS PERIOD 43 IS TRANSIENT


 REUSING WELS FROM LAST STRESS PERIOD

 REUSING DRNS FROM LAST STRESS PERIOD

 REUSING RCHS FROM LAST STRESS PERIOD


  VOLUME BUDGET FOR ENTIRE MODEL AT END OF TIME STEP    1, STRESS PERIOD  43
  ---------------------------------------------------------------------------------------------------

     CUMULATIVE VOLUME      L**3       RATES FOR THIS TIME STEP      L**3/T          PACKAGE NAME    
     ------------------                 ------------------------                     ----------------

           IN:                                      IN:
           ---                                      ---
              STO-SS =           0.0000                STO-SS =           0.0000     STORAGE         
              STO-SY =   137447268.9575                STO-SY =     2825883.5365     STORAGE         
                 WEL =           0.0000                   WEL =           0.0000     WEL_0           
                 DRN =           0.0000                   DRN =           0.0000     DRN_0           
                 RCH =    16364097.9324                   RCH =      776246.3674     RCH_0           

            TOTAL IN =   153811366.8898              TOTAL IN =     3602129.9039

          OUT:                                     OUT:
          ----                                     ----
              STO-SS =           0.0000                STO-SS =           0.0000     STORAGE         
              STO-SY =    59264616.3205                STO-SY =      351061.2906     STORAGE         
                 WEL =      547141.4475                   WEL =       12600.6694     WEL_0           
                 DRN =    93999609.1219                   DRN =     3238467.9439     DRN_0           
                 RCH =           0.0000                   RCH =           0.0000     RCH_0           

           TOTAL OUT =   153811366.8898             TOTAL OUT =     3602129.9039

            IN - OUT =       1.0103E-05              IN - OUT =       6.2399E-07

 PERCENT DISCREPANCY =           0.00     PERCENT DISCREPANCY =           0.00




         TIME SUMMARY AT END OF TIME STEP    1 IN STRESS PERIOD   43
                          TIME STEP LENGTH =    1.00000    
                        STRESS PERIOD TIME =    1.00000    
                     TOTAL SIMULATION TIME =    43.0000    

end timestep


start timestep kper="44" kstp="1" mode="normal"


 OUTPUT CONTROL FOR STRESS PERIOD 44 IS REPEATED USING SETTINGS FROM A PREVIOUS STRESS PERIOD.


 STRESS PERIOD 44 IS TRANSIENT


 REUSING WELS FROM LAST STRESS PERIOD

 REUSING DRNS FROM LAST STRESS PERIOD

 REUSING RCHS FROM LAST STRESS PERIOD


  VOLUME BUDGET FOR ENTIRE MODEL AT END OF TIME STEP    1, STRESS PERIOD  44
  ---------------------------------------------------------------------------------------------------

     CUMULATIVE VOLUME      L**3       RATES FOR THIS TIME STEP      L**3/T          PACKAGE NAME    
     ------------------                 ------------------------                     ----------------

           IN:                                      IN:
           ---                                      ---
              STO-SS =           0.0000                STO-SS =           0.0000     STORAGE         
              STO-SY =   140249841.7714                STO-SY =     2802572.8139     STORAGE         
                 WEL =           0.0000                   WEL =           0.0000     WEL_0           
                 DRN =           0.0000                   DRN =           0.0000     DRN_0           
                 RCH =    17163430.4731                   RCH =      799332.5407     RCH_0           

            TOTAL IN =   157413272.2444              TOTAL IN =     3601905.3546

          OUT:                                     OUT:
          ----                                     ----
              STO-SS =           0.0000                STO-SS =           0.0000     STORAGE         
              STO-SY =    59603256.4488                STO-SY =      338640.1283     STORAGE         
                 WEL =      559638.6467                   WEL =       12497.1992     WEL_0           
                 DRN =    97250377.1489                   DRN =     3250768.0270     DRN_0           
                 RCH =           0.0000                   RCH =           0.0000     RCH_0           

           TOTAL OUT =   157413272.2444             TOTAL OUT =     3601905.3546

            IN - OUT =       1.3471E-05              IN - OUT =       3.3993E-06

 PERCENT DISCREPANCY =           0.00     PERCENT DISCREPANCY =           0.00




         TIME SUMMARY AT END OF TIME STEP    1 IN STRESS PERIOD   44
                          TIME STEP LENGTH =    1.00000    
                        STRESS PERIOD TIME =    1.00000    
                     TOTAL SIMULATION TIME =    44.0000    

end timestep


start timestep kper="45" kstp="1" mode="normal"


 OUTPUT CONTROL FOR STRESS PERIOD 45 IS REPEATED USING SETTINGS FROM A PREVIOUS STRESS PERIOD.


 STRESS PERIOD 45 IS TRANSIENT


 REUSING WELS FROM LAST STRESS PERIOD

 REUSING DRNS FROM LAST STRESS PERIOD

 REUSING RCHS FROM LAST STRESS PERIOD


  VOLUME BUDGET FOR ENTIRE MODEL AT END OF TIME STEP    1, STRESS PERIOD  45
  ---------------------------------------------------------------------------------------------------

     CUMULATIVE VOLUME      L**3       RATES FOR THIS TIME STEP      L**3/T          PACKAGE NAME    
     ------------------                 ------------------------                     ----------------

           IN:                                      IN:
           ---                                      ---
              STO-SS =           0.0000                STO-SS =           0.0000     STORAGE         
              STO-SY =   143051265.4193                STO-SY =     2801423.6479     STORAGE         
                 WEL =           0.0000                   WEL =           0.0000     WEL_0           
                 DRN =           0.0000                   DRN =           0.0000     DRN_0           
                 RCH =    17967722.3466                   RCH =      804291.8735     RCH_0           

            TOTAL IN =   161018987.7658              TOTAL IN =     3605715.5214

          OUT:                                     OUT:
          ----                                     ----
              STO-SS =           0.0000                STO-SS =           0.0000     STORAGE         
              STO-SY =    59936451.2775                STO-SY =      333194.8287     STORAGE         
                 WEL =      572141.5774                   WEL =       12502.9307     WEL_0           
                 DRN =   100510394.9109                   DRN =     3260017.7620     DRN_0           
                 RCH =           0.0000                   RCH =           0.0000     RCH_0           

           TOTAL OUT =   161018987.7658             TOTAL OUT =     3605715.5214

            IN - OUT =       1.4633E-05              IN - OUT =       1.1707E-06

 PERCENT DISCREPANCY =           0.00     PERCENT DISCREPANCY =           0.00




         TIME SUMMARY AT END OF TIME STEP    1 IN STRESS PERIOD   45
                          TIME STEP LENGTH =    1.00000    
                        STRESS PERIOD TIME =    1.00000    
                     TOTAL SIMULATION TIME =    45.0000    

end timestep


start timestep kper="46" kstp="1" mode="normal"


 OUTPUT CONTROL FOR STRESS PERIOD 46 IS REPEATED USING SETTINGS FROM A PREVIOUS STRESS PERIOD.


 STRESS PERIOD 46 IS TRANSIENT


 REUSING WELS FROM LAST STRESS PERIOD

 REUSING DRNS FROM LAST STRESS PERIOD

 REUSING RCHS FROM LAST STRESS PERIOD


  VOLUME BUDGET FOR ENTIRE MODEL AT END OF TIME STEP    1, STRESS PERIOD  46
  ---------------------------------------------------------------------------------------------------

     CUMULATIVE VOLUME      L**3       RATES FOR THIS TIME STEP      L**3/T          PACKAGE NAME    
     ------------------                 ------------------------                     ----------------

           IN:                                      IN:
           ---                                      ---
              STO-SS =           0.0000                STO-SS =           0.0000     STORAGE         
              STO-SY =   145826951.7668                STO-SY =     2775686.3475     STORAGE         
                 WEL =           0.0000                   WEL =           0.0000     WEL_0           
                 DRN =           0.0000                   DRN =           0.0000     DRN_0           
                 RCH =    18788136.2653                   RCH =      820413.9188     RCH_0           

            TOTAL IN =   164615088.0321              TOTAL IN =     3596100.2663

          OUT:                                     OUT:
          ----                                     ----
              STO-SS =           0.0000                STO-SS =           0.0000     STORAGE         
              STO-SY =    60264242.8561                STO-SY =      327791.5786     STORAGE         
                 WEL =      584639.8628                   WEL =       12498.2854     WEL_0           
                 DRN =   103766205.3132                   DRN =     3255810.4023     DRN_0           
                 RCH =           0.0000                   RCH =           0.0000     RCH_0           

           TOTAL OUT =   164615088.0321             TOTAL OUT =     3596100.2663

            IN - OUT =       1.3858E-05              IN - OUT =      -7.6881E-07

 PERCENT DISCREPANCY =           0.00     PERCENT DISCREPANCY =          -0.00




         TIME SUMMARY AT END OF TIME STEP    1 IN STRESS PERIOD   46
                          TIME STEP LENGTH =    1.00000    
                        STRESS PERIOD TIME =    1.00000    
                     TOTAL SIMULATION TIME =    46.0000    

end timestep


start timestep kper="47" kstp="1" mode="normal"


 OUTPUT CONTROL FOR STRESS PERIOD 47 IS REPEATED USING SETTINGS FROM A PREVIOUS STRESS PERIOD.


 STRESS PERIOD 47 IS TRANSIENT


 REUSING WELS FROM LAST STRESS PERIOD

 REUSING DRNS FROM LAST STRESS PERIOD

 REUSING RCHS FROM LAST STRESS PERIOD


  VOLUME BUDGET FOR ENTIRE MODEL AT END OF TIME STEP    1, STRESS PERIOD  47
  ---------------------------------------------------------------------------------------------------

     CUMULATIVE VOLUME      L**3       RATES FOR THIS TIME STEP      L**3/T          PACKAGE NAME    
     ------------------                 ------------------------                     ----------------

           IN:                                      IN:
           ---                                      ---
              STO-SS =           0.0000                STO-SS =           0.0000     STORAGE         
              STO-SY =   148606471.7920                STO-SY =     2779520.0251     STORAGE         
                 WEL =           0.0000                   WEL =           0.0000     WEL_0           
                 DRN =           0.0000                   DRN =           0.0000     DRN_0           
                 RCH =    19604617.3289                   RCH =      816481.0636     RCH_0           

            TOTAL IN =   168211089.1209              TOTAL IN =     3596001.0887

          OUT:                                     OUT:
          ----                                     ----
              STO-SS =           0.0000                STO-SS =           0.0000     STORAGE         
              STO-SY =    60585114.3442                STO-SY =      320871.4881     STORAGE         
                 WEL =      597166.0403                   WEL =       12526.1774     WEL_0           
                 DRN =   107028808.7364                   DRN =     3262603.4232     DRN_0           
                 RCH =           0.0000                   RCH =           0.0000     RCH_0           

           TOTAL OUT =   168211089.1209             TOTAL OUT =     3596001.0887

            IN - OUT =       1.3947E-05              IN - OUT =       8.8010E-08

 PERCENT DISCREPANCY =           0.00     PERCENT DISCREPANCY =           0.00




         TIME SUMMARY AT END OF TIME STEP    1 IN STRESS PERIOD   47
                          TIME STEP LENGTH =    1.00000    
                        STRESS PERIOD TIME =    1.00000    
                     TOTAL SIMULATION TIME =    47.0000    

end timestep


start timestep kper="48" kstp="1" mode="normal"


 OUTPUT CONTROL FOR STRESS PERIOD 48 IS REPEATED USING SETTINGS FROM A PREVIOUS STRESS PERIOD.


 STRESS PERIOD 48 IS TRANSIENT


 REUSING WELS FROM LAST STRESS PERIOD

 REUSING DRNS FROM LAST STRESS PERIOD

 REUSING RCHS FROM LAST STRESS PERIOD


  VOLUME BUDGET FOR ENTIRE MODEL AT END OF TIME STEP    1, STRESS PERIOD  48
  ---------------------------------------------------------------------------------------------------

     CUMULATIVE VOLUME      L**3       RATES FOR THIS TIME STEP      L**3/T          PACKAGE NAME    
     ------------------                 ------------------------                     ----------------

           IN:                                      IN:
           ---                                      ---
              STO-SS =           0.0000                STO-SS =           0.0000     STORAGE         
              STO-SY =   151363570.0550                STO-SY =     2757098.2630     STORAGE         
                 WEL =           0.0000                   WEL =           0.0000     WEL_0           
                 DRN =           0.0000                   DRN =           0.0000     DRN_0           
                 RCH =    20437357.2044                   RCH =      832739.8755     RCH_0           

            TOTAL IN =   171800927.2594              TOTAL IN =     3589838.1385

          OUT:                                     OUT:
          ----                                     ----
              STO-SS =           0.0000                STO-SS =           0.0000     STORAGE         
              STO-SY =    60895966.5811                STO-SY =      310852.2369     STORAGE         
                 WEL =      609566.1087                   WEL =       12400.0685     WEL_0           
                 DRN =   110295394.5696                   DRN =     3266585.8332     DRN_0           
                 RCH =           0.0000                   RCH =           0.0000     RCH_0           

           TOTAL OUT =   171800927.2594             TOTAL OUT =     3589838.1385

            IN - OUT =       1.2040E-05              IN - OUT =      -1.8859E-06

 PERCENT DISCREPANCY =           0.00     PERCENT DISCREPANCY =          -0.00




         TIME SUMMARY AT END OF TIME STEP    1 IN STRESS PERIOD   48
                          TIME STEP LENGTH =    1.00000    
                        STRESS PERIOD TIME =    1.00000    
                     TOTAL SIMULATION TIME =    48.0000    

end timestep


start timestep kper="49" kstp="1" mode="normal"


 OUTPUT CONTROL FOR STRESS PERIOD 49 IS REPEATED USING SETTINGS FROM A PREVIOUS STRESS PERIOD.


 STRESS PERIOD 49 IS TRANSIENT


 REUSING WELS FROM LAST STRESS PERIOD

 REUSING DRNS FROM LAST STRESS PERIOD

 REUSING RCHS FROM LAST STRESS PERIOD


  VOLUME BUDGET FOR ENTIRE MODEL AT END OF TIME STEP    1, STRESS PERIOD  49
  ---------------------------------------------------------------------------------------------------

     CUMULATIVE VOLUME      L**3       RATES FOR THIS TIME STEP      L**3/T          PACKAGE NAME    
     ------------------                 ------------------------                     ----------------

           IN:                                      IN:
           ---                                      ---
              STO-SS =           0.0000                STO-SS =           0.0000     STORAGE         
              STO-SY =   154111733.5389                STO-SY =     2748163.4839     STORAGE         
                 WEL =           0.0000                   WEL =           0.0000     WEL_0           
                 DRN =           0.0000                   DRN =           0.0000     DRN_0           
                 RCH =    21282335.3767                   RCH =      844978.1723     RCH_0           

            TOTAL IN =   175394068.9156              TOTAL IN =     3593141.6562

          OUT:                                     OUT:
          ----                                     ----
              STO-SS =           0.0000                STO-SS =           0.0000     STORAGE         
              STO-SY =    61199055.3858                STO-SY =      303088.8048     STORAGE         
                 WEL =      621843.2988                   WEL =       12277.1900     WEL_0           
                 DRN =   113573170.2310                   DRN =     3277775.6614     DRN_0           
                 RCH =           0.0000                   RCH =           0.0000     RCH_0           

           TOTAL OUT =   175394068.9156             TOTAL OUT =     3593141.6562

            IN - OUT =       1.1057E-05              IN - OUT =      -9.8860E-07

 PERCENT DISCREPANCY =           0.00     PERCENT DISCREPANCY =          -0.00




         TIME SUMMARY AT END OF TIME STEP    1 IN STRESS PERIOD   49
                          TIME STEP LENGTH =    1.00000    
                        STRESS PERIOD TIME =    1.00000    
                     TOTAL SIMULATION TIME =    49.0000    

end timestep


start timestep kper="50" kstp="1" mode="normal"


 OUTPUT CONTROL FOR STRESS PERIOD 50 IS REPEATED USING SETTINGS FROM A PREVIOUS STRESS PERIOD.


 STRESS PERIOD 50 IS TRANSIENT


 REUSING WELS FROM LAST STRESS PERIOD

 REUSING DRNS FROM LAST STRESS PERIOD

 REUSING RCHS FROM LAST STRESS PERIOD


  VOLUME BUDGET FOR ENTIRE MODEL AT END OF TIME STEP    1, STRESS PERIOD  50
  ---------------------------------------------------------------------------------------------------

     CUMULATIVE VOLUME      L**3       RATES FOR THIS TIME STEP      L**3/T          PACKAGE NAME    
     ------------------                 ------------------------                     ----------------

           IN:                                      IN:
           ---                                      ---
              STO-SS =           0.0000                STO-SS =           0.0000     STORAGE         
              STO-SY =   156855781.7897                STO-SY =     2744048.2508     STORAGE         
                 WEL =           0.0000                   WEL =           0.0000     WEL_0           
                 DRN =           0.0000                   DRN =           0.0000     DRN_0           
                 RCH =    22118124.2504                   RCH =      835788.8737     RCH_0           

            TOTAL IN =   178973906.0401              TOTAL IN =     3579837.1245

          OUT:                                     OUT:
          ----                                     ----
              STO-SS =           0.0000                STO-SS =           0.0000     STORAGE         
              STO-SY =    61493156.3899                STO-SY =      294101.0041     STORAGE         
                 WEL =      634083.2695                   WEL =       12239.9707     WEL_0           
                 DRN =   116846666.3806                   DRN =     3273496.1497     DRN_0           
                 RCH =           0.0000                   RCH =           0.0000     RCH_0           

           TOTAL OUT =   178973906.0401             TOTAL OUT =     3579837.1245

            IN - OUT =       1.0759E-05              IN - OUT =      -2.6636E-07

 PERCENT DISCREPANCY =           0.00     PERCENT DISCREPANCY =          -0.00




         TIME SUMMARY AT END OF TIME STEP    1 IN STRESS PERIOD   50
                          TIME STEP LENGTH =    1.00000    
                        STRESS PERIOD TIME =    1.00000    
                     TOTAL SIMULATION TIME =    50.0000    

end timestep


start timestep kper="51" kstp="1" mode="normal"


 OUTPUT CONTROL FOR STRESS PERIOD 51 IS REPEATED USING SETTINGS FROM A PREVIOUS STRESS PERIOD.


 STRESS PERIOD 51 IS TRANSIENT


 REUSING WELS FROM LAST STRESS PERIOD

 REUSING DRNS FROM LAST STRESS PERIOD

 REUSING RCHS FROM LAST STRESS PERIOD


  VOLUME BUDGET FOR ENTIRE MODEL AT END OF TIME STEP    1, STRESS PERIOD  51
  ---------------------------------------------------------------------------------------------------

     CUMULATIVE VOLUME      L**3       RATES FOR THIS TIME STEP      L**3/T          PACKAGE NAME    
     ------------------                 ------------------------                     ----------------

           IN:                                      IN:
           ---                                      ---
              STO-SS =           0.0000                STO-SS =           0.0000     STORAGE         
              STO-SY =   159580422.2322                STO-SY =     2724640.4426     STORAGE         
                 WEL =           0.0000                   WEL =           0.0000     WEL_0           
                 DRN =           0.0000                   DRN =           0.0000     DRN_0           
                 RCH =    22975889.6379                   RCH =      857765.3875     RCH_0           

            TOTAL IN =   182556311.8702              TOTAL IN =     3582405.8301

          OUT:                                     OUT:
          ----                                     ----
              STO-SS =           0.0000                STO-SS =           0.0000     STORAGE         
              STO-SY =    61778253.3805                STO-SY =      285096.9906     STORAGE         
                 WEL =      646317.1313                   WEL =       12233.8618     WEL_0           
                 DRN =   120131741.3583                   DRN =     3285074.9777     DRN_0           
                 RCH =           0.0000                   RCH =           0.0000     RCH_0           

           TOTAL OUT =   182556311.8702             TOTAL OUT =     3582405.8301

            IN - OUT =       1.1981E-05              IN - OUT =       1.1977E-06

 PERCENT DISCREPANCY =           0.00     PERCENT DISCREPANCY =           0.00




         TIME SUMMARY AT END OF TIME STEP    1 IN STRESS PERIOD   51
                          TIME STEP LENGTH =    1.00000    
                        STRESS PERIOD TIME =    1.00000    
                     TOTAL SIMULATION TIME =    51.0000    

end timestep


start timestep kper="52" kstp="1" mode="normal"


 OUTPUT CONTROL FOR STRESS PERIOD 52 IS REPEATED USING SETTINGS FROM A PREVIOUS STRESS PERIOD.


 STRESS PERIOD 52 IS TRANSIENT


 REUSING WELS FROM LAST STRESS PERIOD

 REUSING DRNS FROM LAST STRESS PERIOD

 REUSING RCHS FROM LAST STRESS PERIOD


  VOLUME BUDGET FOR ENTIRE MODEL AT END OF TIME STEP    1, STRESS PERIOD  52
  ---------------------------------------------------------------------------------------------------

     CUMULATIVE VOLUME      L**3       RATES FOR THIS TIME STEP      L**3/T          PACKAGE NAME    
     ------------------                 ------------------------                     ----------------

           IN:                                      IN:
           ---                                      ---
              STO-SS =           0.0000                STO-SS =           0.0000     STORAGE         
              STO-SY =   162298464.2179                STO-SY =     2718041.9857     STORAGE         
                 WEL =           0.0000                   WEL =           0.0000     WEL_0           
                 DRN =           0.0000                   DRN =           0.0000     DRN_0           
                 RCH =    23826769.7628                   RCH =      850880.1249     RCH_0           

            TOTAL IN =   186125233.9808              TOTAL IN =     3568922.1106

          OUT:                                     OUT:
          ----                                     ----
              STO-SS =           0.0000                STO-SS =           0.0000     STORAGE         
              STO-SY =    62053321.3594                STO-SY =      275067.9789     STORAGE         
                 WEL =      658582.3333                   WEL =       12265.2020     WEL_0           
                 DRN =   123413330.2880                   DRN =     3281588.9297     DRN_0           
                 RCH =           0.0000                   RCH =           0.0000     RCH_0           

           TOTAL OUT =   186125233.9807             TOTAL OUT =     3568922.1106

            IN - OUT =       1.4544E-05              IN - OUT =       2.5723E-06

 PERCENT DISCREPANCY =           0.00     PERCENT DISCREPANCY =           0.00




         TIME SUMMARY AT END OF TIME STEP    1 IN STRESS PERIOD   52
                          TIME STEP LENGTH =    1.00000    
                        STRESS PERIOD TIME =    1.00000    
                     TOTAL SIMULATION TIME =    52.0000    

end timestep


start timestep kper="53" kstp="1" mode="normal"


 OUTPUT CONTROL FOR STRESS PERIOD 53 IS REPEATED USING SETTINGS FROM A PREVIOUS STRESS PERIOD.


 STRESS PERIOD 53 IS TRANSIENT


 REUSING WELS FROM LAST STRESS PERIOD

 REUSING DRNS FROM LAST STRESS PERIOD

 REUSING RCHS FROM LAST STRESS PERIOD


  VOLUME BUDGET FOR ENTIRE MODEL AT END OF TIME STEP    1, STRESS PERIOD  53
  ---------------------------------------------------------------------------------------------------

     CUMULATIVE VOLUME      L**3       RATES FOR THIS TIME STEP      L**3/T          PACKAGE NAME    
     ------------------                 ------------------------                     ----------------

           IN:                                      IN:
           ---                                      ---
              STO-SS =           0.0000                STO-SS =           0.0000     STORAGE         
              STO-SY =   165012647.0502                STO-SY =     2714182.8322     STORAGE         
                 WEL =           0.0000                   WEL =           0.0000     WEL_0           
                 DRN =           0.0000                   DRN =           0.0000     DRN_0           
                 RCH =    24669240.0997                   RCH =      842470.3369     RCH_0           

            TOTAL IN =   189681887.1499              TOTAL IN =     3556653.1691

          OUT:                                     OUT:
          ----                                     ----
              STO-SS =           0.0000                STO-SS =           0.0000     STORAGE         
              STO-SY =    62318191.6171                STO-SY =      264870.2577     STORAGE         
                 WEL =      670843.1138                   WEL =       12260.7805     WEL_0           
                 DRN =   126692852.4189                   DRN =     3279522.1309     DRN_0           
                 RCH =           0.0000                   RCH =           0.0000     RCH_0           

           TOTAL OUT =   189681887.1498             TOTAL OUT =     3556653.1691

            IN - OUT =       1.5944E-05              IN - OUT =       1.3709E-06

 PERCENT DISCREPANCY =           0.00     PERCENT DISCREPANCY =           0.00




         TIME SUMMARY AT END OF TIME STEP    1 IN STRESS PERIOD   53
                          TIME STEP LENGTH =    1.00000    
                        STRESS PERIOD TIME =    1.00000    
                     TOTAL SIMULATION TIME =    53.0000    

end timestep


start timestep kper="54" kstp="1" mode="normal"


 OUTPUT CONTROL FOR STRESS PERIOD 54 IS REPEATED USING SETTINGS FROM A PREVIOUS STRESS PERIOD.


 STRESS PERIOD 54 IS TRANSIENT


 REUSING WELS FROM LAST STRESS PERIOD

 REUSING DRNS FROM LAST STRESS PERIOD

 REUSING RCHS FROM LAST STRESS PERIOD


  VOLUME BUDGET FOR ENTIRE MODEL AT END OF TIME STEP    1, STRESS PERIOD  54
  ---------------------------------------------------------------------------------------------------

     CUMULATIVE VOLUME      L**3       RATES FOR THIS TIME STEP      L**3/T          PACKAGE NAME    
     ------------------                 ------------------------                     ----------------

           IN:                                      IN:
           ---                                      ---
              STO-SS =           0.0000                STO-SS =           0.0000     STORAGE         
              STO-SY =   167707989.7492                STO-SY =     2695342.6991     STORAGE         
                 WEL =           0.0000                   WEL =           0.0000     WEL_0           
                 DRN =           0.0000                   DRN =           0.0000     DRN_0           
                 RCH =    25526931.2393                   RCH =      857691.1396     RCH_0           

            TOTAL IN =   193234920.9885              TOTAL IN =     3553033.8386

          OUT:                                     OUT:
          ----                                     ----
              STO-SS =           0.0000                STO-SS =           0.0000     STORAGE         
              STO-SY =    62580150.9451                STO-SY =      261959.3280     STORAGE         
                 WEL =      683082.2243                   WEL =       12239.1105     WEL_0           
                 DRN =   129971687.8190                   DRN =     3278835.4001     DRN_0           
                 RCH =           0.0000                   RCH =           0.0000     RCH_0           

           TOTAL OUT =   193234920.9885             TOTAL OUT =     3553033.8386

            IN - OUT =       1.7315E-05              IN - OUT =       1.3835E-06

 PERCENT DISCREPANCY =           0.00     PERCENT DISCREPANCY =           0.00




         TIME SUMMARY AT END OF TIME STEP    1 IN STRESS PERIOD   54
                          TIME STEP LENGTH =    1.00000    
                        STRESS PERIOD TIME =    1.00000    
                     TOTAL SIMULATION TIME =    54.0000    

end timestep


start timestep kper="55" kstp="1" mode="normal"


 OUTPUT CONTROL FOR STRESS PERIOD 55 IS REPEATED USING SETTINGS FROM A PREVIOUS STRESS PERIOD.


 STRESS PERIOD 55 IS TRANSIENT


 REUSING WELS FROM LAST STRESS PERIOD

 REUSING DRNS FROM LAST STRESS PERIOD

 REUSING RCHS FROM LAST STRESS PERIOD


  VOLUME BUDGET FOR ENTIRE MODEL AT END OF TIME STEP    1, STRESS PERIOD  55
  ---------------------------------------------------------------------------------------------------

     CUMULATIVE VOLUME      L**3       RATES FOR THIS TIME STEP      L**3/T          PACKAGE NAME    
     ------------------                 ------------------------                     ----------------

           IN:                                      IN:
           ---                                      ---
              STO-SS =           0.0000                STO-SS =           0.0000     STORAGE         
              STO-SY =   170392977.7835                STO-SY =     2684988.0342     STORAGE         
                 WEL =           0.0000                   WEL =           0.0000     WEL_0           
                 DRN =           0.0000                   DRN =           0.0000     DRN_0           
                 RCH =    26391931.9968                   RCH =      865000.7576     RCH_0           

            TOTAL IN =   196784909.7803              TOTAL IN =     3549988.7918

          OUT:                                     OUT:
          ----                                     ----
              STO-SS =           0.0000                STO-SS =           0.0000     STORAGE         
              STO-SY =    62828865.5851                STO-SY =      248714.6400     STORAGE         
                 WEL =      695312.4891                   WEL =       12230.2647     WEL_0           
                 DRN =   133260731.7061                   DRN =     3289043.8871     DRN_0           
                 RCH =           0.0000                   RCH =           0.0000     RCH_0           

           TOTAL OUT =   196784909.7803             TOTAL OUT =     3549988.7918

            IN - OUT =       1.7971E-05              IN - OUT =       6.4634E-07

 PERCENT DISCREPANCY =           0.00     PERCENT DISCREPANCY =           0.00




         TIME SUMMARY AT END OF TIME STEP    1 IN STRESS PERIOD   55
                          TIME STEP LENGTH =    1.00000    
                        STRESS PERIOD TIME =    1.00000    
                     TOTAL SIMULATION TIME =    55.0000    

end timestep


start timestep kper="56" kstp="1" mode="normal"


 OUTPUT CONTROL FOR STRESS PERIOD 56 IS REPEATED USING SETTINGS FROM A PREVIOUS STRESS PERIOD.


 STRESS PERIOD 56 IS TRANSIENT


 REUSING WELS FROM LAST STRESS PERIOD

 REUSING DRNS FROM LAST STRESS PERIOD

 REUSING RCHS FROM LAST STRESS PERIOD


  VOLUME BUDGET FOR ENTIRE MODEL AT END OF TIME STEP    1, STRESS PERIOD  56
  ---------------------------------------------------------------------------------------------------

     CUMULATIVE VOLUME      L**3       RATES FOR THIS TIME STEP      L**3/T          PACKAGE NAME    
     ------------------                 ------------------------                     ----------------

           IN:                                      IN:
           ---                                      ---
              STO-SS =           0.0000                STO-SS =           0.0000     STORAGE         
              STO-SY =   173079784.3860                STO-SY =     2686806.6025     STORAGE         
                 WEL =           0.0000                   WEL =           0.0000     WEL_0           
                 DRN =           0.0000                   DRN =           0.0000     DRN_0           
                 RCH =    27239806.3254                   RCH =      847874.3286     RCH_0           

            TOTAL IN =   200319590.7114              TOTAL IN =     3534680.9312

          OUT:                                     OUT:
          ----                                     ----
              STO-SS =           0.0000                STO-SS =           0.0000     STORAGE         
              STO-SY =    63071781.8781                STO-SY =      242916.2930     STORAGE         
                 WEL =      707502.6350                   WEL =       12190.1459     WEL_0           
                 DRN =   136540306.1983                   DRN =     3279574.4922     DRN_0           
                 RCH =           0.0000                   RCH =           0.0000     RCH_0           

           TOTAL OUT =   200319590.7114             TOTAL OUT =     3534680.9312

            IN - OUT =       1.8507E-05              IN - OUT =       5.6997E-07

 PERCENT DISCREPANCY =           0.00     PERCENT DISCREPANCY =           0.00




         TIME SUMMARY AT END OF TIME STEP    1 IN STRESS PERIOD   56
                          TIME STEP LENGTH =    1.00000    
                        STRESS PERIOD TIME =    1.00000    
                     TOTAL SIMULATION TIME =    56.0000    

end timestep


start timestep kper="57" kstp="1" mode="normal"


 OUTPUT CONTROL FOR STRESS PERIOD 57 IS REPEATED USING SETTINGS FROM A PREVIOUS STRESS PERIOD.


 STRESS PERIOD 57 IS TRANSIENT


 REUSING WELS FROM LAST STRESS PERIOD

 REUSING DRNS FROM LAST STRESS PERIOD

 REUSING RCHS FROM LAST STRESS PERIOD


  VOLUME BUDGET FOR ENTIRE MODEL AT END OF TIME STEP    1, STRESS PERIOD  57
  ---------------------------------------------------------------------------------------------------

     CUMULATIVE VOLUME      L**3       RATES FOR THIS TIME STEP      L**3/T          PACKAGE NAME    
     ------------------                 ------------------------                     ----------------

           IN:                                      IN:
           ---                                      ---
              STO-SS =           0.0000                STO-SS =           0.0000     STORAGE         
              STO-SY =   175745878.4366                STO-SY =     2666094.0506     STORAGE         
                 WEL =           0.0000                   WEL =           0.0000     WEL_0           
                 DRN =           0.0000                   DRN =           0.0000     DRN_0           
                 RCH =    28116554.9262                   RCH =      876748.6007     RCH_0           

            TOTAL IN =   203862433.3628              TOTAL IN =     3542842.6513

          OUT:                                     OUT:
          ----                                     ----
              STO-SS =           0.0000                STO-SS =           0.0000     STORAGE         
              STO-SY =    63309357.1462                STO-SY =      237575.2681     STORAGE         
                 WEL =      719531.3228                   WEL =       12028.6878     WEL_0           
                 DRN =   139833544.8937                   DRN =     3293238.6954     DRN_0           
                 RCH =           0.0000                   RCH =           0.0000     RCH_0           

           TOTAL OUT =   203862433.3627             TOTAL OUT =     3542842.6513

            IN - OUT =       1.8507E-05              IN - OUT =      -3.4925E-08

 PERCENT DISCREPANCY =           0.00     PERCENT DISCREPANCY =          -0.00




         TIME SUMMARY AT END OF TIME STEP    1 IN STRESS PERIOD   57
                          TIME STEP LENGTH =    1.00000    
                        STRESS PERIOD TIME =    1.00000    
                     TOTAL SIMULATION TIME =    57.0000    

end timestep


start timestep kper="58" kstp="1" mode="normal"


 OUTPUT CONTROL FOR STRESS PERIOD 58 IS REPEATED USING SETTINGS FROM A PREVIOUS STRESS PERIOD.


 STRESS PERIOD 58 IS TRANSIENT


 REUSING WELS FROM LAST STRESS PERIOD

 REUSING DRNS FROM LAST STRESS PERIOD

 REUSING RCHS FROM LAST STRESS PERIOD


  VOLUME BUDGET FOR ENTIRE MODEL AT END OF TIME STEP    1, STRESS PERIOD  58
  ---------------------------------------------------------------------------------------------------

     CUMULATIVE VOLUME      L**3       RATES FOR THIS TIME STEP      L**3/T          PACKAGE NAME    
     ------------------                 ------------------------                     ----------------

           IN:                                      IN:
           ---                                      ---
              STO-SS =           0.0000                STO-SS =           0.0000     STORAGE         
              STO-SY =   178401632.9392                STO-SY =     2655754.5026     STORAGE         
                 WEL =           0.0000                   WEL =           0.0000     WEL_0           
                 DRN =           0.0000                   DRN =           0.0000     DRN_0           
                 RCH =    28995187.8163                   RCH =      878632.8901     RCH_0           

            TOTAL IN =   207396820.7555              TOTAL IN =     3534387.3927

          OUT:                                     OUT:
          ----                                     ----
              STO-SS =           0.0000                STO-SS =           0.0000     STORAGE         
              STO-SY =    63541507.2194                STO-SY =      232150.0732     STORAGE         
                 WEL =      731486.5941                   WEL =       11955.2712     WEL_0           
                 DRN =   143123826.9420                   DRN =     3290282.0483     DRN_0           
                 RCH =           0.0000                   RCH =           0.0000     RCH_0           

           TOTAL OUT =   207396820.7555             TOTAL OUT =     3534387.3927

            IN - OUT =       1.7375E-05              IN - OUT =      -1.1059E-06

 PERCENT DISCREPANCY =           0.00     PERCENT DISCREPANCY =          -0.00




         TIME SUMMARY AT END OF TIME STEP    1 IN STRESS PERIOD   58
                          TIME STEP LENGTH =    1.00000    
                        STRESS PERIOD TIME =    1.00000    
                     TOTAL SIMULATION TIME =    58.0000    

end timestep


start timestep kper="59" kstp="1" mode="normal"


 OUTPUT CONTROL FOR STRESS PERIOD 59 IS REPEATED USING SETTINGS FROM A PREVIOUS STRESS PERIOD.


 STRESS PERIOD 59 IS TRANSIENT


 REUSING WELS FROM LAST STRESS PERIOD

 REUSING DRNS FROM LAST STRESS PERIOD

 REUSING RCHS FROM LAST STRESS PERIOD


  VOLUME BUDGET FOR ENTIRE MODEL AT END OF TIME STEP    1, STRESS PERIOD  59
  ---------------------------------------------------------------------------------------------------

     CUMULATIVE VOLUME      L**3       RATES FOR THIS TIME STEP      L**3/T          PACKAGE NAME    
     ------------------                 ------------------------                     ----------------

           IN:                                      IN:
           ---                                      ---
              STO-SS =           0.0000                STO-SS =           0.0000     STORAGE         
              STO-SY =   181057239.1229                STO-SY =     2655606.1837     STORAGE         
                 WEL =           0.0000                   WEL =           0.0000     WEL_0           
                 DRN =           0.0000                   DRN =           0.0000     DRN_0           
                 RCH =    29865435.5676                   RCH =      870247.7514     RCH_0           

            TOTAL IN =   210922674.6906              TOTAL IN =     3525853.9351

          OUT:                                     OUT:
          ----                                     ----
              STO-SS =           0.0000                STO-SS =           0.0000     STORAGE         
              STO-SY =    63768175.3563                STO-SY =      226668.1369     STORAGE         
                 WEL =      743460.4227                   WEL =       11973.8287     WEL_0           
                 DRN =   146411038.9115                   DRN =     3287211.9695     DRN_0           
                 RCH =           0.0000                   RCH =           0.0000     RCH_0           

           TOTAL OUT =   210922674.6906             TOTAL OUT =     3525853.9351

            IN - OUT =       1.5765E-05              IN - OUT =      -1.6275E-06

 PERCENT DISCREPANCY =           0.00     PERCENT DISCREPANCY =          -0.00




         TIME SUMMARY AT END OF TIME STEP    1 IN STRESS PERIOD   59
                          TIME STEP LENGTH =    1.00000    
                        STRESS PERIOD TIME =    1.00000    
                     TOTAL SIMULATION TIME =    59.0000    

end timestep


start timestep kper="60" kstp="1" mode="normal"


 OUTPUT CONTROL FOR STRESS PERIOD 60 IS REPEATED USING SETTINGS FROM A PREVIOUS STRESS PERIOD.


 STRESS PERIOD 60 IS TRANSIENT


 REUSING WELS FROM LAST STRESS PERIOD

 REUSING DRNS FROM LAST STRESS PERIOD

 REUSING RCHS FROM LAST STRESS PERIOD


  VOLUME BUDGET FOR ENTIRE MODEL AT END OF TIME STEP    1, STRESS PERIOD  60
  ---------------------------------------------------------------------------------------------------

     CUMULATIVE VOLUME      L**3       RATES FOR THIS TIME STEP      L**3/T          PACKAGE NAME    
     ------------------                 ------------------------                     ----------------

           IN:                                      IN:
           ---                                      ---
              STO-SS =           0.0000                STO-SS =           0.0000     STORAGE         
              STO-SY =   183802659.6772                STO-SY =     2745420.5542     STORAGE         
                 WEL =           0.0000                   WEL =           0.0000     WEL_0           
                 DRN =           0.0000                   DRN =           0.0000     DRN_0           
                 RCH =    30775125.9885                   RCH =      909690.4208     RCH_0           

            TOTAL IN =   214577785.6656              TOTAL IN =     3655110.9750

          OUT:                                     OUT:
          ----                                     ----
              STO-SS =           0.0000                STO-SS =           0.0000     STORAGE         
              STO-SY =    63976221.6291                STO-SY =      208046.2727     STORAGE         
                 WEL =      923056.1777                   WEL =      179595.7549     WEL_0           
                 DRN =   149678507.8589                   DRN =     3267468.9474     DRN_0           
                 RCH =           0.0000                   RCH =           0.0000     RCH_0           

           TOTAL OUT =   214577785.6656             TOTAL OUT =     3655110.9750

            IN - OUT =       1.3888E-05              IN - OUT =      -1.8724E-06

 PERCENT DISCREPANCY =           0.00     PERCENT DISCREPANCY =          -0.00




         TIME SUMMARY AT END OF TIME STEP    1 IN STRESS PERIOD   60
                          TIME STEP LENGTH =    1.00000    
                        STRESS PERIOD TIME =    1.00000    
                     TOTAL SIMULATION TIME =    60.0000    

end timestep


start timestep kper="61" kstp="1" mode="normal"


 OUTPUT CONTROL FOR STRESS PERIOD 61 IS REPEATED USING SETTINGS FROM A PREVIOUS STRESS PERIOD.


 STRESS PERIOD 61 IS TRANSIENT


 REUSING WELS FROM LAST STRESS PERIOD

 REUSING DRNS FROM LAST STRESS PERIOD

 REUSING RCHS FROM LAST STRESS PERIOD


  VOLUME BUDGET FOR ENTIRE MODEL AT END OF TIME STEP    1, STRESS PERIOD  61
  ---------------------------------------------------------------------------------------------------

     CUMULATIVE VOLUME      L**3       RATES FOR THIS TIME STEP      L**3/T          PACKAGE NAME    
     ------------------                 ------------------------                     ----------------

           IN:                                      IN:
           ---                                      ---
              STO-SS =           0.0000                STO-SS =           0.0000     STORAGE         
              STO-SY =   186483260.3641                STO-SY =     2680600.6870     STORAGE         
                 WEL =           0.0000                   WEL =           0.0000     WEL_0           
                 DRN =           0.0000                   DRN =           0.0000     DRN_0           
                 RCH =    31669665.2820                   RCH =      894539.2935     RCH_0           

            TOTAL IN =   218152925.6461              TOTAL IN =     3575139.9805

          OUT:                                     OUT:
          ----                                     ----
              STO-SS =           0.0000                STO-SS =           0.0000     STORAGE         
              STO-SY =    64188473.5428                STO-SY =      212251.9138     STORAGE         
                 WEL =     1014539.5034                   WEL =       91483.3258     WEL_0           
                 DRN =   152949912.5998                   DRN =     3271404.7409     DRN_0           
                 RCH =           0.0000                   RCH =           0.0000     RCH_0           

           TOTAL OUT =   218152925.6461             TOTAL OUT =     3575139.9805

            IN - OUT =       1.4365E-05              IN - OUT =       4.4750E-07

 PERCENT DISCREPANCY =           0.00     PERCENT DISCREPANCY =           0.00




         TIME SUMMARY AT END OF TIME STEP    1 IN STRESS PERIOD   61
                          TIME STEP LENGTH =    1.00000    
                        STRESS PERIOD TIME =    1.00000    
                     TOTAL SIMULATION TIME =    61.0000    

end timestep


start timestep kper="62" kstp="1" mode="normal"


 OUTPUT CONTROL FOR STRESS PERIOD 62 IS REPEATED USING SETTINGS FROM A PREVIOUS STRESS PERIOD.


 STRESS PERIOD 62 IS TRANSIENT


 REUSING WELS FROM LAST STRESS PERIOD

 REUSING DRNS FROM LAST STRESS PERIOD

 REUSING RCHS FROM LAST STRESS PERIOD


  VOLUME BUDGET FOR ENTIRE MODEL AT END OF TIME STEP    1, STRESS PERIOD  62
  ---------------------------------------------------------------------------------------------------

     CUMULATIVE VOLUME      L**3       RATES FOR THIS TIME STEP      L**3/T          PACKAGE NAME    
     ------------------                 ------------------------                     ----------------

           IN:                                      IN:
           ---                                      ---
              STO-SS =           0.0000                STO-SS =           0.0000     STORAGE         
              STO-SY =   189140245.1835                STO-SY =     2656984.8194     STORAGE         
                 WEL =           0.0000                   WEL =           0.0000     WEL_0           
                 DRN =           0.0000                   DRN =           0.0000     DRN_0           
                 RCH =    32572436.2824                   RCH =      902771.0004     RCH_0           

            TOTAL IN =   221712681.4659              TOTAL IN =     3559755.8198

          OUT:                                     OUT:
          ----                                     ----
              STO-SS =           0.0000                STO-SS =           0.0000     STORAGE         
              STO-SY =    64399970.1289                STO-SY =      211496.5860     STORAGE         
                 WEL =     1075741.5529                   WEL =       61202.0495     WEL_0           
                 DRN =   156236969.7840                   DRN =     3287057.1842     DRN_0           
                 RCH =           0.0000                   RCH =           0.0000     RCH_0           

           TOTAL OUT =   221712681.4659             TOTAL OUT =     3559755.8198

            IN - OUT =       1.3471E-05              IN - OUT =      -8.8289E-07

 PERCENT DISCREPANCY =           0.00     PERCENT DISCREPANCY =          -0.00




         TIME SUMMARY AT END OF TIME STEP    1 IN STRESS PERIOD   62
                          TIME STEP LENGTH =    1.00000    
                        STRESS PERIOD TIME =    1.00000    
                     TOTAL SIMULATION TIME =    62.0000    

end timestep


start timestep kper="63" kstp="1" mode="normal"


 OUTPUT CONTROL FOR STRESS PERIOD 63 IS REPEATED USING SETTINGS FROM A PREVIOUS STRESS PERIOD.


 STRESS PERIOD 63 IS TRANSIENT


 REUSING WELS FROM LAST STRESS PERIOD

 REUSING DRNS FROM LAST STRESS PERIOD

 REUSING RCHS FROM LAST STRESS PERIOD


  VOLUME BUDGET FOR ENTIRE MODEL AT END OF TIME STEP    1, STRESS PERIOD  63
  ---------------------------------------------------------------------------------------------------

     CUMULATIVE VOLUME      L**3       RATES FOR THIS TIME STEP      L**3/T          PACKAGE NAME    
     ------------------                 ------------------------                     ----------------

           IN:                                      IN:
           ---                                      ---
              STO-SS =           0.0000                STO-SS =           0.0000     STORAGE         
              STO-SY =   191782335.3050                STO-SY =     2642090.1215     STORAGE         
                 WEL =           0.0000                   WEL =           0.0000     WEL_0           
                 DRN =           0.0000                   DRN =           0.0000     DRN_0           
                 RCH =    33473799.1373                   RCH =      901362.8550     RCH_0           

            TOTAL IN =   225256134.4424              TOTAL IN =     3543452.9765

          OUT:                                     OUT:
          ----                                     ----
              STO-SS =           0.0000                STO-SS =           0.0000     STORAGE         
              STO-SY =    64607643.3513                STO-SY =      207673.2224     STORAGE         
                 WEL =     1137579.8157                   WEL =       61838.2627     WEL_0           
                 DRN =   159510911.2754                   DRN =     3273941.4914     DRN_0           
                 RCH =           0.0000                   RCH =           0.0000     RCH_0           

           TOTAL OUT =   225256134.4423             TOTAL OUT =     3543452.9765

            IN - OUT =       1.1474E-05              IN - OUT =      -1.9926E-06

 PERCENT DISCREPANCY =           0.00     PERCENT DISCREPANCY =          -0.00




         TIME SUMMARY AT END OF TIME STEP    1 IN STRESS PERIOD   63
                          TIME STEP LENGTH =    1.00000    
                        STRESS PERIOD TIME =    1.00000    
                     TOTAL SIMULATION TIME =    63.0000    

end timestep


start timestep kper="64" kstp="1" mode="normal"


 OUTPUT CONTROL FOR STRESS PERIOD 64 IS REPEATED USING SETTINGS FROM A PREVIOUS STRESS PERIOD.


 STRESS PERIOD 64 IS TRANSIENT


 REUSING WELS FROM LAST STRESS PERIOD

 REUSING DRNS FROM LAST STRESS PERIOD

 REUSING RCHS FROM LAST STRESS PERIOD


  VOLUME BUDGET FOR ENTIRE MODEL AT END OF TIME STEP    1, STRESS PERIOD  64
  ---------------------------------------------------------------------------------------------------

     CUMULATIVE VOLUME      L**3       RATES FOR THIS TIME STEP      L**3/T          PACKAGE NAME    
     ------------------                 ------------------------                     ----------------

           IN:                                      IN:
           ---                                      ---
              STO-SS =           0.0000                STO-SS =           0.0000     STORAGE         
              STO-SY =   194423915.1431                STO-SY =     2641579.8381     STORAGE         
                 WEL =           0.0000                   WEL =           0.0000     WEL_0           
                 DRN =           0.0000                   DRN =           0.0000     DRN_0           
                 RCH =    34404077.1180                   RCH =      930277.9807     RCH_0           

            TOTAL IN =   228827992.2611              TOTAL IN =     3571857.8188

          OUT:                                     OUT:
          ----                                     ----
              STO-SS =           0.0000                STO-SS =           0.0000     STORAGE         
              STO-SY =    64817298.7343                STO-SY =      209655.3830     STORAGE         
                 WEL =     1214493.5943                   WEL =       76913.7786     WEL_0           
                 DRN =   162796199.9325                   DRN =     3285288.6572     DRN_0           
                 RCH =           0.0000                   RCH =           0.0000     RCH_0           

           TOTAL OUT =   228827992.2611             TOTAL OUT =     3571857.8188

            IN - OUT =       1.1891E-05              IN - OUT =       4.1863E-07

 PERCENT DISCREPANCY =           0.00     PERCENT DISCREPANCY =           0.00




         TIME SUMMARY AT END OF TIME STEP    1 IN STRESS PERIOD   64
                          TIME STEP LENGTH =    1.00000    
                        STRESS PERIOD TIME =    1.00000    
                     TOTAL SIMULATION TIME =    64.0000    

end timestep


start timestep kper="65" kstp="1" mode="normal"


 OUTPUT CONTROL FOR STRESS PERIOD 65 IS REPEATED USING SETTINGS FROM A PREVIOUS STRESS PERIOD.


 STRESS PERIOD 65 IS TRANSIENT


 REUSING WELS FROM LAST STRESS PERIOD

 REUSING DRNS FROM LAST STRESS PERIOD

 REUSING RCHS FROM LAST STRESS PERIOD


  VOLUME BUDGET FOR ENTIRE MODEL AT END OF TIME STEP    1, STRESS PERIOD  65
  ---------------------------------------------------------------------------------------------------

     CUMULATIVE VOLUME      L**3       RATES FOR THIS TIME STEP      L**3/T          PACKAGE NAME    
     ------------------                 ------------------------                     ----------------

           IN:                                      IN:
           ---                                      ---
              STO-SS =           0.0000                STO-SS =           0.0000     STORAGE         
              STO-SY =   197055303.4132                STO-SY =     2631388.2700     STORAGE         
                 WEL =           0.0000                   WEL =           0.0000     WEL_0           
                 DRN =           0.0000                   DRN =           0.0000     DRN_0           
                 RCH =    35299634.7454                   RCH =      895557.6274     RCH_0           

            TOTAL IN =   232354938.1586              TOTAL IN =     3526945.8975

          OUT:                                     OUT:
          ----                                     ----
              STO-SS =           0.0000                STO-SS =           0.0000     STORAGE         
              STO-SY =    65016570.5380                STO-SY =      199271.8037     STORAGE         
                 WEL =     1272716.9854                   WEL =       58223.3911     WEL_0           
                 DRN =   166065650.6352                   DRN =     3269450.7026     DRN_0           
                 RCH =           0.0000                   RCH =           0.0000     RCH_0           

           TOTAL OUT =   232354938.1586             TOTAL OUT =     3526945.8975

            IN - OUT =       1.1593E-05              IN - OUT =      -3.1013E-07

 PERCENT DISCREPANCY =           0.00     PERCENT DISCREPANCY =          -0.00




         TIME SUMMARY AT END OF TIME STEP    1 IN STRESS PERIOD   65
                          TIME STEP LENGTH =    1.00000    
                        STRESS PERIOD TIME =    1.00000    
                     TOTAL SIMULATION TIME =    65.0000    

end timestep


start timestep kper="66" kstp="1" mode="normal"


 OUTPUT CONTROL FOR STRESS PERIOD 66 IS REPEATED USING SETTINGS FROM A PREVIOUS STRESS PERIOD.


 STRESS PERIOD 66 IS TRANSIENT


 REUSING WELS FROM LAST STRESS PERIOD

 REUSING DRNS FROM LAST STRESS PERIOD

 REUSING RCHS FROM LAST STRESS PERIOD


  VOLUME BUDGET FOR ENTIRE MODEL AT END OF TIME STEP    1, STRESS PERIOD  66
  ---------------------------------------------------------------------------------------------------

     CUMULATIVE VOLUME      L**3       RATES FOR THIS TIME STEP      L**3/T          PACKAGE NAME    
     ------------------                 ------------------------                     ----------------

           IN:                                      IN:
           ---                                      ---
              STO-SS =           0.0000                STO-SS =           0.0000     STORAGE         
              STO-SY =   199666266.9227                STO-SY =     2610963.5095     STORAGE         
                 WEL =           0.0000                   WEL =           0.0000     WEL_0           
                 DRN =           0.0000                   DRN =           0.0000     DRN_0           
                 RCH =    36232521.0525                   RCH =      932886.3071     RCH_0           

            TOTAL IN =   235898787.9752              TOTAL IN =     3543849.8166

          OUT:                                     OUT:
          ----                                     ----
              STO-SS =           0.0000                STO-SS =           0.0000     STORAGE         
              STO-SY =    65221580.2443                STO-SY =      205009.7062     STORAGE         
                 WEL =     1333987.8586                   WEL =       61270.8732     WEL_0           
                 DRN =   169343219.8723                   DRN =     3277569.2372     DRN_0           
                 RCH =           0.0000                   RCH =           0.0000     RCH_0           

           TOTAL OUT =   235898787.9752             TOTAL OUT =     3543849.8166

            IN - OUT =       1.2696E-05              IN - OUT =       1.0813E-06

 PERCENT DISCREPANCY =           0.00     PERCENT DISCREPANCY =           0.00




         TIME SUMMARY AT END OF TIME STEP    1 IN STRESS PERIOD   66
                          TIME STEP LENGTH =    1.00000    
                        STRESS PERIOD TIME =    1.00000    
                     TOTAL SIMULATION TIME =    66.0000    

end timestep


start timestep kper="67" kstp="1" mode="normal"


 OUTPUT CONTROL FOR STRESS PERIOD 67 IS REPEATED USING SETTINGS FROM A PREVIOUS STRESS PERIOD.


 STRESS PERIOD 67 IS TRANSIENT


 REUSING WELS FROM LAST STRESS PERIOD

 REUSING DRNS FROM LAST STRESS PERIOD

 REUSING RCHS FROM LAST STRESS PERIOD


  VOLUME BUDGET FOR ENTIRE MODEL AT END OF TIME STEP    1, STRESS PERIOD  67
  ---------------------------------------------------------------------------------------------------

     CUMULATIVE VOLUME      L**3       RATES FOR THIS TIME STEP      L**3/T          PACKAGE NAME    
     ------------------                 ------------------------                     ----------------

           IN:                                      IN:
           ---                                      ---
              STO-SS =           0.0000                STO-SS =           0.0000     STORAGE         
              STO-SY =   202282326.1737                STO-SY =     2616059.2510     STORAGE         
                 WEL =           0.0000                   WEL =           0.0000     WEL_0           
                 DRN =           0.0000                   DRN =           0.0000     DRN_0           
                 RCH =    37153256.8670                   RCH =      920735.8144     RCH_0           

            TOTAL IN =   239435583.0407              TOTAL IN =     3536795.0655

          OUT:                                     OUT:
          ----                                     ----
              STO-SS =           0.0000                STO-SS =           0.0000     STORAGE         
              STO-SY =    65418242.7597                STO-SY =      196662.5154     STORAGE         
                 WEL =     1405697.4102                   WEL =       71709.5516     WEL_0           
                 DRN =   172611642.8708                   DRN =     3268422.9984     DRN_0           
                 RCH =           0.0000                   RCH =           0.0000     RCH_0           

           TOTAL OUT =   239435583.0407             TOTAL OUT =     3536795.0655

            IN - OUT =       1.2219E-05              IN - OUT =      -4.8801E-07

 PERCENT DISCREPANCY =           0.00     PERCENT DISCREPANCY =          -0.00




         TIME SUMMARY AT END OF TIME STEP    1 IN STRESS PERIOD   67
                          TIME STEP LENGTH =    1.00000    
                        STRESS PERIOD TIME =    1.00000    
                     TOTAL SIMULATION TIME =    67.0000    

end timestep


start timestep kper="68" kstp="1" mode="normal"


 OUTPUT CONTROL FOR STRESS PERIOD 68 IS REPEATED USING SETTINGS FROM A PREVIOUS STRESS PERIOD.


 STRESS PERIOD 68 IS TRANSIENT


 REUSING WELS FROM LAST STRESS PERIOD

 REUSING DRNS FROM LAST STRESS PERIOD

 REUSING RCHS FROM LAST STRESS PERIOD


  VOLUME BUDGET FOR ENTIRE MODEL AT END OF TIME STEP    1, STRESS PERIOD  68
  ---------------------------------------------------------------------------------------------------

     CUMULATIVE VOLUME      L**3       RATES FOR THIS TIME STEP      L**3/T          PACKAGE NAME    
     ------------------                 ------------------------                     ----------------

           IN:                                      IN:
           ---                                      ---
              STO-SS =           0.0000                STO-SS =           0.0000     STORAGE         
              STO-SY =   204885957.4132                STO-SY =     2603631.2395     STORAGE         
                 WEL =           0.0000                   WEL =           0.0000     WEL_0           
                 DRN =           0.0000                   DRN =           0.0000     DRN_0           
                 RCH =    38075110.6148                   RCH =      921853.7479     RCH_0           

            TOTAL IN =   242961068.0281              TOTAL IN =     3525484.9874

          OUT:                                     OUT:
          ----                                     ----
              STO-SS =           0.0000                STO-SS =           0.0000     STORAGE         
              STO-SY =    65608261.3046                STO-SY =      190018.5449     STORAGE         
                 WEL =     1467382.5629                   WEL =       61685.1527     WEL_0           
                 DRN =   175885424.1605                   DRN =     3273781.2898     DRN_0           
                 RCH =           0.0000                   RCH =           0.0000     RCH_0           

           TOTAL OUT =   242961068.0281             TOTAL OUT =     3525484.9874

            IN - OUT =       1.1265E-05              IN - OUT =      -9.3738E-07

 PERCENT DISCREPANCY =           0.00     PERCENT DISCREPANCY =          -0.00




         TIME SUMMARY AT END OF TIME STEP    1 IN STRESS PERIOD   68
                          TIME STEP LENGTH =    1.00000    
                        STRESS PERIOD TIME =    1.00000    
                     TOTAL SIMULATION TIME =    68.0000    

end timestep


start timestep kper="69" kstp="1" mode="normal"


 OUTPUT CONTROL FOR STRESS PERIOD 69 IS REPEATED USING SETTINGS FROM A PREVIOUS STRESS PERIOD.


 STRESS PERIOD 69 IS TRANSIENT


 REUSING WELS FROM LAST STRESS PERIOD

 REUSING DRNS FROM LAST STRESS PERIOD

 REUSING RCHS FROM LAST STRESS PERIOD


  VOLUME BUDGET FOR ENTIRE MODEL AT END OF TIME STEP    1, STRESS PERIOD  69
  ---------------------------------------------------------------------------------------------------

     CUMULATIVE VOLUME      L**3       RATES FOR THIS TIME STEP      L**3/T          PACKAGE NAME    
     ------------------                 ------------------------                     ----------------

           IN:                                      IN:
           ---                                      ---
              STO-SS =           0.0000                STO-SS =           0.0000     STORAGE         
              STO-SY =   207476397.2865                STO-SY =     2590439.8732     STORAGE         
                 WEL =           0.0000                   WEL =           0.0000     WEL_0           
                 DRN =           0.0000                   DRN =           0.0000     DRN_0           
                 RCH =    38995778.4617                   RCH =      920667.8468     RCH_0           

            TOTAL IN =   246472175.7482              TOTAL IN =     3511107.7201

          OUT:                                     OUT:
          ----                                     ----
              STO-SS =           0.0000                STO-SS =           0.0000     STORAGE         
              STO-SY =    65792183.5237                STO-SY =      183922.2191     STORAGE         
                 WEL =     1529382.6363                   WEL =       62000.0734     WEL_0           
                 DRN =   179150609.5881                   DRN =     3265185.4275     DRN_0           
                 RCH =           0.0000                   RCH =           0.0000     RCH_0           

           TOTAL OUT =   246472175.7481             TOTAL OUT =     3511107.7201

            IN - OUT =       8.8513E-06              IN - OUT =      -2.4103E-06

 PERCENT DISCREPANCY =           0.00     PERCENT DISCREPANCY =          -0.00




         TIME SUMMARY AT END OF TIME STEP    1 IN STRESS PERIOD   69
                          TIME STEP LENGTH =    1.00000    
                        STRESS PERIOD TIME =    1.00000    
                     TOTAL SIMULATION TIME =    69.0000    

end timestep


start timestep kper="70" kstp="1" mode="normal"


 OUTPUT CONTROL FOR STRESS PERIOD 70 IS REPEATED USING SETTINGS FROM A PREVIOUS STRESS PERIOD.


 STRESS PERIOD 70 IS TRANSIENT


 REUSING WELS FROM LAST STRESS PERIOD

 REUSING DRNS FROM LAST STRESS PERIOD

 REUSING RCHS FROM LAST STRESS PERIOD


  VOLUME BUDGET FOR ENTIRE MODEL AT END OF TIME STEP    1, STRESS PERIOD  70
  ---------------------------------------------------------------------------------------------------

     CUMULATIVE VOLUME      L**3       RATES FOR THIS TIME STEP      L**3/T          PACKAGE NAME    
     ------------------                 ------------------------                     ----------------

           IN:                                      IN:
           ---                                      ---
              STO-SS =           0.0000                STO-SS =           0.0000     STORAGE         
              STO-SY =   210064790.7316                STO-SY =     2588393.4451     STORAGE         
                 WEL =           0.0000                   WEL =           0.0000     WEL_0           
                 DRN =           0.0000                   DRN =           0.0000     DRN_0           
                 RCH =    39931941.3126                   RCH =      936162.8509     RCH_0           

            TOTAL IN =   249996732.0442              TOTAL IN =     3524556.2960

          OUT:                                     OUT:
          ----                                     ----
              STO-SS =           0.0000                STO-SS =           0.0000     STORAGE         
              STO-SY =    65973321.5628                STO-SY =      181138.0391     STORAGE         
                 WEL =     1601174.3525                   WEL =       71791.7161     WEL_0           
                 DRN =   182422236.1289                   DRN =     3271626.5408     DRN_0           
                 RCH =           0.0000                   RCH =           0.0000     RCH_0           

           TOTAL OUT =   249996732.0442             TOTAL OUT =     3524556.2960

            IN - OUT =       8.1956E-06              IN - OUT =      -6.0908E-07

 PERCENT DISCREPANCY =           0.00     PERCENT DISCREPANCY =          -0.00




         TIME SUMMARY AT END OF TIME STEP    1 IN STRESS PERIOD   70
                          TIME STEP LENGTH =    1.00000    
                        STRESS PERIOD TIME =    1.00000    
                     TOTAL SIMULATION TIME =    70.0000    

end timestep


start timestep kper="71" kstp="1" mode="normal"


 OUTPUT CONTROL FOR STRESS PERIOD 71 IS REPEATED USING SETTINGS FROM A PREVIOUS STRESS PERIOD.


 STRESS PERIOD 71 IS TRANSIENT


 REUSING WELS FROM LAST STRESS PERIOD

 REUSING DRNS FROM LAST STRESS PERIOD

 REUSING RCHS FROM LAST STRESS PERIOD


  VOLUME BUDGET FOR ENTIRE MODEL AT END OF TIME STEP    1, STRESS PERIOD  71
  ---------------------------------------------------------------------------------------------------

     CUMULATIVE VOLUME      L**3       RATES FOR THIS TIME STEP      L**3/T          PACKAGE NAME    
     ------------------                 ------------------------                     ----------------

           IN:                                      IN:
           ---                                      ---
              STO-SS =           0.0000                STO-SS =           0.0000     STORAGE         
              STO-SY =   212651493.9638                STO-SY =     2586703.2322     STORAGE         
                 WEL =           0.0000                   WEL =           0.0000     WEL_0           
                 DRN =           0.0000                   DRN =           0.0000     DRN_0           
                 RCH =    40844193.3605                   RCH =      912252.0479     RCH_0           

            TOTAL IN =   253495687.3243              TOTAL IN =     3498955.2801

          OUT:                                     OUT:
          ----                                     ----
              STO-SS =           0.0000                STO-SS =           0.0000     STORAGE         
              STO-SY =    66147041.6059                STO-SY =      173720.0430     STORAGE         
                 WEL =     1667508.3126                   WEL =       66333.9602     WEL_0           
                 DRN =   185681137.4058                   DRN =     3258901.2769     DRN_0           
                 RCH =           0.0000                   RCH =           0.0000     RCH_0           

           TOTAL OUT =   253495687.3243             TOTAL OUT =     3498955.2801

            IN - OUT =       9.2089E-06              IN - OUT =       9.9139E-07

 PERCENT DISCREPANCY =           0.00     PERCENT DISCREPANCY =           0.00




         TIME SUMMARY AT END OF TIME STEP    1 IN STRESS PERIOD   71
                          TIME STEP LENGTH =    1.00000    
                        STRESS PERIOD TIME =    1.00000    
                     TOTAL SIMULATION TIME =    71.0000    

end timestep


start timestep kper="72" kstp="1" mode="normal"


 OUTPUT CONTROL FOR STRESS PERIOD 72 IS REPEATED USING SETTINGS FROM A PREVIOUS STRESS PERIOD.


 STRESS PERIOD 72 IS TRANSIENT


 REUSING WELS FROM LAST STRESS PERIOD

 REUSING DRNS FROM LAST STRESS PERIOD

 REUSING RCHS FROM LAST STRESS PERIOD


  VOLUME BUDGET FOR ENTIRE MODEL AT END OF TIME STEP    1, STRESS PERIOD  72
  ---------------------------------------------------------------------------------------------------

     CUMULATIVE VOLUME      L**3       RATES FOR THIS TIME STEP      L**3/T          PACKAGE NAME    
     ------------------                 ------------------------                     ----------------

           IN:                                      IN:
           ---                                      ---
              STO-SS =           0.0000                STO-SS =           0.0000     STORAGE         
              STO-SY =   215215433.6664                STO-SY =     2563939.7026     STORAGE         
                 WEL =           0.0000                   WEL =           0.0000     WEL_0           
                 DRN =           0.0000                   DRN =           0.0000     DRN_0           
                 RCH =    41790301.9112                   RCH =      946108.5507     RCH_0           

            TOTAL IN =   257005735.5776              TOTAL IN =     3510048.2533

          OUT:                                     OUT:
          ----                                     ----
              STO-SS =           0.0000                STO-SS =           0.0000     STORAGE         
              STO-SY =    66319159.7944                STO-SY =      172118.1885     STORAGE         
                 WEL =     1730894.3196                   WEL =       63386.0070     WEL_0           
                 DRN =   188955681.4636                   DRN =     3274544.0578     DRN_0           
                 RCH =           0.0000                   RCH =           0.0000     RCH_0           

           TOTAL OUT =   257005735.5776             TOTAL OUT =     3510048.2533

            IN - OUT =       8.5831E-06              IN - OUT =      -6.3470E-07

 PERCENT DISCREPANCY =           0.00     PERCENT DISCREPANCY =          -0.00




         TIME SUMMARY AT END OF TIME STEP    1 IN STRESS PERIOD   72
                          TIME STEP LENGTH =    1.00000    
                        STRESS PERIOD TIME =    1.00000    
                     TOTAL SIMULATION TIME =    72.0000    

end timestep


start timestep kper="73" kstp="1" mode="normal"


 OUTPUT CONTROL FOR STRESS PERIOD 73 IS REPEATED USING SETTINGS FROM A PREVIOUS STRESS PERIOD.


 STRESS PERIOD 73 IS TRANSIENT


 REUSING WELS FROM LAST STRESS PERIOD

 REUSING DRNS FROM LAST STRESS PERIOD

 REUSING RCHS FROM LAST STRESS PERIOD


  VOLUME BUDGET FOR ENTIRE MODEL AT END OF TIME STEP    1, STRESS PERIOD  73
  ---------------------------------------------------------------------------------------------------

     CUMULATIVE VOLUME      L**3       RATES FOR THIS TIME STEP      L**3/T          PACKAGE NAME    
     ------------------                 ------------------------                     ----------------

           IN:                                      IN:
           ---                                      ---
              STO-SS =           0.0000                STO-SS =           0.0000     STORAGE         
              STO-SY =   217782841.4248                STO-SY =     2567407.7584     STORAGE         
                 WEL =           0.0000                   WEL =           0.0000     WEL_0           
                 DRN =           0.0000                   DRN =           0.0000     DRN_0           
                 RCH =    42719852.6483                   RCH =      929550.7370     RCH_0           

            TOTAL IN =   260502694.0731              TOTAL IN =     3496958.4955

          OUT:                                     OUT:
          ----                                     ----
              STO-SS =           0.0000                STO-SS =           0.0000     STORAGE         
              STO-SY =    66476552.9737                STO-SY =      157393.1793     STORAGE         
                 WEL =     1803019.0375                   WEL =       72124.7179     WEL_0           
                 DRN =   192223122.0619                   DRN =     3267440.5983     DRN_0           
                 RCH =           0.0000                   RCH =           0.0000     RCH_0           

           TOTAL OUT =   260502694.0730             TOTAL OUT =     3496958.4954

            IN - OUT =       1.2934E-05              IN - OUT =       4.3274E-06

 PERCENT DISCREPANCY =           0.00     PERCENT DISCREPANCY =           0.00




         TIME SUMMARY AT END OF TIME STEP    1 IN STRESS PERIOD   73
                          TIME STEP LENGTH =    1.00000    
                        STRESS PERIOD TIME =    1.00000    
                     TOTAL SIMULATION TIME =    73.0000    

end timestep


start timestep kper="74" kstp="1" mode="normal"


 OUTPUT CONTROL FOR STRESS PERIOD 74 IS REPEATED USING SETTINGS FROM A PREVIOUS STRESS PERIOD.


 STRESS PERIOD 74 IS TRANSIENT


 REUSING WELS FROM LAST STRESS PERIOD

 REUSING DRNS FROM LAST STRESS PERIOD

 REUSING RCHS FROM LAST STRESS PERIOD


  VOLUME BUDGET FOR ENTIRE MODEL AT END OF TIME STEP    1, STRESS PERIOD  74
  ---------------------------------------------------------------------------------------------------

     CUMULATIVE VOLUME      L**3       RATES FOR THIS TIME STEP      L**3/T          PACKAGE NAME    
     ------------------                 ------------------------                     ----------------

           IN:                                      IN:
           ---                                      ---
              STO-SS =           0.0000                STO-SS =           0.0000     STORAGE         
              STO-SY =   220340133.8624                STO-SY =     2557292.4376     STORAGE         
                 WEL =           0.0000                   WEL =           0.0000     WEL_0           
                 DRN =           0.0000                   DRN =           0.0000     DRN_0           
                 RCH =    43642381.4386                   RCH =      922528.7903     RCH_0           

            TOTAL IN =   263982515.3010              TOTAL IN =     3479821.2279

          OUT:                                     OUT:
          ----                                     ----
              STO-SS =           0.0000                STO-SS =           0.0000     STORAGE         
              STO-SY =    66629188.1718                STO-SY =      152635.1981     STORAGE         
                 WEL =     1862488.9428                   WEL =       59469.9054     WEL_0           
                 DRN =   195490838.1864                   DRN =     3267716.1245     DRN_0           
                 RCH =           0.0000                   RCH =           0.0000     RCH_0           

           TOTAL OUT =   263982515.3010             TOTAL OUT =     3479821.2279

            IN - OUT =       1.4871E-05              IN - OUT =       1.9460E-06

 PERCENT DISCREPANCY =           0.00     PERCENT DISCREPANCY =           0.00




         TIME SUMMARY AT END OF TIME STEP    1 IN STRESS PERIOD   74
                          TIME STEP LENGTH =    1.00000    
                        STRESS PERIOD TIME =    1.00000    
                     TOTAL SIMULATION TIME =    74.0000    

end timestep


start timestep kper="75" kstp="1" mode="normal"


 OUTPUT CONTROL FOR STRESS PERIOD 75 IS REPEATED USING SETTINGS FROM A PREVIOUS STRESS PERIOD.


 STRESS PERIOD 75 IS TRANSIENT


 REUSING WELS FROM LAST STRESS PERIOD

 REUSING DRNS FROM LAST STRESS PERIOD

 REUSING RCHS FROM LAST STRESS PERIOD


  VOLUME BUDGET FOR ENTIRE MODEL AT END OF TIME STEP    1, STRESS PERIOD  75
  ---------------------------------------------------------------------------------------------------

     CUMULATIVE VOLUME      L**3       RATES FOR THIS TIME STEP      L**3/T          PACKAGE NAME    
     ------------------                 ------------------------                     ----------------

           IN:                                      IN:
           ---                                      ---
              STO-SS =           0.0000                STO-SS =           0.0000     STORAGE         
              STO-SY =   222885444.3083                STO-SY =     2545310.4459     STORAGE         
                 WEL =           0.0000                   WEL =           0.0000     WEL_0           
                 DRN =           0.0000                   DRN =           0.0000     DRN_0           
                 RCH =    44568687.7040                   RCH =      926306.2655     RCH_0           

            TOTAL IN =   267454132.0123              TOTAL IN =     3471616.7113

          OUT:                                     OUT:
          ----                                     ----
              STO-SS =           0.0000                STO-SS =           0.0000     STORAGE         
              STO-SY =    66776036.1990                STO-SY =      146848.0273     STORAGE         
                 WEL =     1930176.9627                   WEL =       67688.0199     WEL_0           
                 DRN =   198747918.8505                   DRN =     3257080.6642     DRN_0           
                 RCH =           0.0000                   RCH =           0.0000     RCH_0           

           TOTAL OUT =   267454132.0123             TOTAL OUT =     3471616.7113

            IN - OUT =       1.6630E-05              IN - OUT =       1.7369E-06

 PERCENT DISCREPANCY =           0.00     PERCENT DISCREPANCY =           0.00




         TIME SUMMARY AT END OF TIME STEP    1 IN STRESS PERIOD   75
                          TIME STEP LENGTH =    1.00000    
                        STRESS PERIOD TIME =    1.00000    
                     TOTAL SIMULATION TIME =    75.0000    

end timestep


start timestep kper="76" kstp="1" mode="normal"


 OUTPUT CONTROL FOR STRESS PERIOD 76 IS REPEATED USING SETTINGS FROM A PREVIOUS STRESS PERIOD.


 STRESS PERIOD 76 IS TRANSIENT


 REUSING WELS FROM LAST STRESS PERIOD

 REUSING DRNS FROM LAST STRESS PERIOD

 REUSING RCHS FROM LAST STRESS PERIOD


  VOLUME BUDGET FOR ENTIRE MODEL AT END OF TIME STEP    1, STRESS PERIOD  76
  ---------------------------------------------------------------------------------------------------

     CUMULATIVE VOLUME      L**3       RATES FOR THIS TIME STEP      L**3/T          PACKAGE NAME    
     ------------------                 ------------------------                     ----------------

           IN:                                      IN:
           ---                                      ---
              STO-SS =           0.0000                STO-SS =           0.0000     STORAGE         
              STO-SY =   225420628.8125                STO-SY =     2535184.5042     STORAGE         
                 WEL =           0.0000                   WEL =           0.0000     WEL_0           
                 DRN =           0.0000                   DRN =           0.0000     DRN_0           
                 RCH =    45501245.8093                   RCH =      932558.1053     RCH_0           

            TOTAL IN =   270921874.6218              TOTAL IN =     3467742.6095

          OUT:                                     OUT:
          ----                                     ----
              STO-SS =           0.0000                STO-SS =           0.0000     STORAGE         
              STO-SY =    66918164.6631                STO-SY =      142128.4640     STORAGE         
                 WEL =     1983636.5863                   WEL =       53459.6236     WEL_0           
                 DRN =   202020073.3724                   DRN =     3272154.5219     DRN_0           
                 RCH =           0.0000                   RCH =           0.0000     RCH_0           

           TOTAL OUT =   270921874.6218             TOTAL OUT =     3467742.6095

            IN - OUT =       1.7226E-05              IN - OUT =       6.1281E-07

 PERCENT DISCREPANCY =           0.00     PERCENT DISCREPANCY =           0.00




         TIME SUMMARY AT END OF TIME STEP    1 IN STRESS PERIOD   76
                          TIME STEP LENGTH =    1.00000    
                        STRESS PERIOD TIME =    1.00000    
                     TOTAL SIMULATION TIME =    76.0000    

end timestep


start timestep kper="77" kstp="1" mode="normal"


 OUTPUT CONTROL FOR STRESS PERIOD 77 IS REPEATED USING SETTINGS FROM A PREVIOUS STRESS PERIOD.


 STRESS PERIOD 77 IS TRANSIENT


 REUSING WELS FROM LAST STRESS PERIOD

 REUSING DRNS FROM LAST STRESS PERIOD

 REUSING RCHS FROM LAST STRESS PERIOD


  VOLUME BUDGET FOR ENTIRE MODEL AT END OF TIME STEP    1, STRESS PERIOD  77
  ---------------------------------------------------------------------------------------------------

     CUMULATIVE VOLUME      L**3       RATES FOR THIS TIME STEP      L**3/T          PACKAGE NAME    
     ------------------                 ------------------------                     ----------------

           IN:                                      IN:
           ---                                      ---
              STO-SS =           0.0000                STO-SS =           0.0000     STORAGE         
              STO-SY =   227959796.0741                STO-SY =     2539167.2617     STORAGE         
                 WEL =           0.0000                   WEL =           0.0000     WEL_0           
                 DRN =           0.0000                   DRN =           0.0000     DRN_0           
                 RCH =    46427387.4394                   RCH =      926141.6301     RCH_0           

            TOTAL IN =   274387183.5135              TOTAL IN =     3465308.8918

          OUT:                                     OUT:
          ----                                     ----
              STO-SS =           0.0000                STO-SS =           0.0000     STORAGE         
              STO-SY =    67051396.3687                STO-SY =      133231.7057     STORAGE         
                 WEL =     2060801.7055                   WEL =       77165.1192     WEL_0           
                 DRN =   205274985.4393                   DRN =     3254912.0669     DRN_0           
                 RCH =           0.0000                   RCH =           0.0000     RCH_0           

           TOTAL OUT =   274387183.5135             TOTAL OUT =     3465308.8918

            IN - OUT =       1.7703E-05              IN - OUT =       4.4750E-07

 PERCENT DISCREPANCY =           0.00     PERCENT DISCREPANCY =           0.00




         TIME SUMMARY AT END OF TIME STEP    1 IN STRESS PERIOD   77
                          TIME STEP LENGTH =    1.00000    
                        STRESS PERIOD TIME =    1.00000    
                     TOTAL SIMULATION TIME =    77.0000    

end timestep


start timestep kper="78" kstp="1" mode="normal"


 OUTPUT CONTROL FOR STRESS PERIOD 78 IS REPEATED USING SETTINGS FROM A PREVIOUS STRESS PERIOD.


 STRESS PERIOD 78 IS TRANSIENT


 REUSING WELS FROM LAST STRESS PERIOD

 REUSING DRNS FROM LAST STRESS PERIOD

 REUSING RCHS FROM LAST STRESS PERIOD


  VOLUME BUDGET FOR ENTIRE MODEL AT END OF TIME STEP    1, STRESS PERIOD  78
  ---------------------------------------------------------------------------------------------------

     CUMULATIVE VOLUME      L**3       RATES FOR THIS TIME STEP      L**3/T          PACKAGE NAME    
     ------------------                 ------------------------                     ----------------

           IN:                                      IN:
           ---                                      ---
              STO-SS =           0.0000                STO-SS =           0.0000     STORAGE         
              STO-SY =   230478593.0856                STO-SY =     2518797.0115     STORAGE         
                 WEL =           0.0000                   WEL =           0.0000     WEL_0           
                 DRN =           0.0000                   DRN =           0.0000     DRN_0           
                 RCH =    47365209.2636                   RCH =      937821.8242     RCH_0           

            TOTAL IN =   277843802.3492              TOTAL IN =     3456618.8357

          OUT:                                     OUT:
          ----                                     ----
              STO-SS =           0.0000                STO-SS =           0.0000     STORAGE         
              STO-SY =    67184934.8996                STO-SY =      133538.5309     STORAGE         
                 WEL =     2118393.1112                   WEL =       57591.4058     WEL_0           
                 DRN =   208540474.3384                   DRN =     3265488.8990     DRN_0           
                 RCH =           0.0000                   RCH =           0.0000     RCH_0           

           TOTAL OUT =   277843802.3492             TOTAL OUT =     3456618.8357

            IN - OUT =       1.6212E-05              IN - OUT =      -1.4496E-06

 PERCENT DISCREPANCY =           0.00     PERCENT DISCREPANCY =          -0.00




         TIME SUMMARY AT END OF TIME STEP    1 IN STRESS PERIOD   78
                          TIME STEP LENGTH =    1.00000    
                        STRESS PERIOD TIME =    1.00000    
                     TOTAL SIMULATION TIME =    78.0000    

end timestep


start timestep kper="79" kstp="1" mode="normal"


 OUTPUT CONTROL FOR STRESS PERIOD 79 IS REPEATED USING SETTINGS FROM A PREVIOUS STRESS PERIOD.


 STRESS PERIOD 79 IS TRANSIENT


 REUSING WELS FROM LAST STRESS PERIOD

 REUSING DRNS FROM LAST STRESS PERIOD

 REUSING RCHS FROM LAST STRESS PERIOD


  VOLUME BUDGET FOR ENTIRE MODEL AT END OF TIME STEP    1, STRESS PERIOD  79
  ---------------------------------------------------------------------------------------------------

     CUMULATIVE VOLUME      L**3       RATES FOR THIS TIME STEP      L**3/T          PACKAGE NAME    
     ------------------                 ------------------------                     ----------------

           IN:                                      IN:
           ---                                      ---
              STO-SS =           0.0000                STO-SS =           0.0000     STORAGE         
              STO-SY =   232998383.8137                STO-SY =     2519790.7281     STORAGE         
                 WEL =           0.0000                   WEL =           0.0000     WEL_0           
                 DRN =           0.0000                   DRN =           0.0000     DRN_0           
                 RCH =    48298934.4097                   RCH =      933725.1461     RCH_0           

            TOTAL IN =   281297318.2234              TOTAL IN =     3453515.8742

          OUT:                                     OUT:
          ----                                     ----
              STO-SS =           0.0000                STO-SS =           0.0000     STORAGE         
              STO-SY =    67315821.3524                STO-SY =      130886.4528     STORAGE         
                 WEL =     2191403.5613                   WEL =       73010.4501     WEL_0           
                 DRN =   211790093.3096                   DRN =     3249618.9713     DRN_0           
                 RCH =           0.0000                   RCH =           0.0000     RCH_0           

           TOTAL OUT =   281297318.2234             TOTAL OUT =     3453515.8741

            IN - OUT =       1.9968E-05              IN - OUT =       3.7584E-06

 PERCENT DISCREPANCY =           0.00     PERCENT DISCREPANCY =           0.00




         TIME SUMMARY AT END OF TIME STEP    1 IN STRESS PERIOD   79
                          TIME STEP LENGTH =    1.00000    
                        STRESS PERIOD TIME =    1.00000    
                     TOTAL SIMULATION TIME =    79.0000    

end timestep


start timestep kper="80" kstp="1" mode="normal"


 OUTPUT CONTROL FOR STRESS PERIOD 80 IS REPEATED USING SETTINGS FROM A PREVIOUS STRESS PERIOD.


 STRESS PERIOD 80 IS TRANSIENT


 REUSING WELS FROM LAST STRESS PERIOD

 REUSING DRNS FROM LAST STRESS PERIOD

 REUSING RCHS FROM LAST STRESS PERIOD


  VOLUME BUDGET FOR ENTIRE MODEL AT END OF TIME STEP    1, STRESS PERIOD  80
  ---------------------------------------------------------------------------------------------------

     CUMULATIVE VOLUME      L**3       RATES FOR THIS TIME STEP      L**3/T          PACKAGE NAME    
     ------------------                 ------------------------                     ----------------

           IN:                                      IN:
           ---                                      ---
              STO-SS =           0.0000                STO-SS =           0.0000     STORAGE         
              STO-SY =   235506777.8000                STO-SY =     2508393.9863     STORAGE         
                 WEL =           0.0000                   WEL =           0.0000     WEL_0           
                 DRN =           0.0000                   DRN =           0.0000     DRN_0           
                 RCH =    49230010.5830                   RCH =      931076.1733     RCH_0           

            TOTAL IN =   284736788.3830              TOTAL IN =     3439470.1596

          OUT:                                     OUT:
          ----                                     ----
              STO-SS =           0.0000                STO-SS =           0.0000     STORAGE         
              STO-SY =    67438131.9517                STO-SY =      122310.5993     STORAGE         
                 WEL =     2253086.9996                   WEL =       61683.4383     WEL_0           
                 DRN =   215045569.4317                   DRN =     3255476.1220     DRN_0           
                 RCH =           0.0000                   RCH =           0.0000     RCH_0           

           TOTAL OUT =   284736788.3829             TOTAL OUT =     3439470.1596

            IN - OUT =       1.8716E-05              IN - OUT =      -1.2508E-06

 PERCENT DISCREPANCY =           0.00     PERCENT DISCREPANCY =          -0.00




         TIME SUMMARY AT END OF TIME STEP    1 IN STRESS PERIOD   80
                          TIME STEP LENGTH =    1.00000    
                        STRESS PERIOD TIME =    1.00000    
                     TOTAL SIMULATION TIME =    80.0000    

end timestep


start timestep kper="81" kstp="1" mode="normal"


 OUTPUT CONTROL FOR STRESS PERIOD 81 IS REPEATED USING SETTINGS FROM A PREVIOUS STRESS PERIOD.


 STRESS PERIOD 81 IS TRANSIENT


 REUSING WELS FROM LAST STRESS PERIOD

 REUSING DRNS FROM LAST STRESS PERIOD

 REUSING RCHS FROM LAST STRESS PERIOD


  VOLUME BUDGET FOR ENTIRE MODEL AT END OF TIME STEP    1, STRESS PERIOD  81
  ---------------------------------------------------------------------------------------------------

     CUMULATIVE VOLUME      L**3       RATES FOR THIS TIME STEP      L**3/T          PACKAGE NAME    
     ------------------                 ------------------------                     ----------------

           IN:                                      IN:
           ---                                      ---
              STO-SS =           0.0000                STO-SS =           0.0000     STORAGE         
              STO-SY =   238015125.1785                STO-SY =     2508347.3786     STORAGE         
                 WEL =           0.0000                   WEL =           0.0000     WEL_0           
                 DRN =           0.0000                   DRN =           0.0000     DRN_0           
                 RCH =    50147263.2777                   RCH =      917252.6947     RCH_0           

            TOTAL IN =   288162388.4562              TOTAL IN =     3425600.0733

          OUT:                                     OUT:
          ----                                     ----
              STO-SS =           0.0000                STO-SS =           0.0000     STORAGE         
              STO-SY =    67557236.0323                STO-SY =      119104.0806     STORAGE         
                 WEL =     2328501.5292                   WEL =       75414.5296     WEL_0           
                 DRN =   218276650.8947                   DRN =     3231081.4631     DRN_0           
                 RCH =           0.0000                   RCH =           0.0000     RCH_0           

           TOTAL OUT =   288162388.4562             TOTAL OUT =     3425600.0733

            IN - OUT =       1.7524E-05              IN - OUT =      -1.1753E-06

 PERCENT DISCREPANCY =           0.00     PERCENT DISCREPANCY =          -0.00




         TIME SUMMARY AT END OF TIME STEP    1 IN STRESS PERIOD   81
                          TIME STEP LENGTH =    1.00000    
                        STRESS PERIOD TIME =    1.00000    
                     TOTAL SIMULATION TIME =    81.0000    

end timestep


start timestep kper="82" kstp="1" mode="normal"


 OUTPUT CONTROL FOR STRESS PERIOD 82 IS REPEATED USING SETTINGS FROM A PREVIOUS STRESS PERIOD.


 STRESS PERIOD 82 IS TRANSIENT


 REUSING WELS FROM LAST STRESS PERIOD

 REUSING DRNS FROM LAST STRESS PERIOD

 REUSING RCHS FROM LAST STRESS PERIOD


  VOLUME BUDGET FOR ENTIRE MODEL AT END OF TIME STEP    1, STRESS PERIOD  82
  ---------------------------------------------------------------------------------------------------

     CUMULATIVE VOLUME      L**3       RATES FOR THIS TIME STEP      L**3/T          PACKAGE NAME    
     ------------------                 ------------------------                     ----------------

           IN:                                      IN:
           ---                                      ---
              STO-SS =           0.0000                STO-SS =           0.0000     STORAGE         
              STO-SY =   240509981.2221                STO-SY =     2494856.0435     STORAGE         
                 WEL =           0.0000                   WEL =           0.0000     WEL_0           
                 DRN =           0.0000                   DRN =           0.0000     DRN_0           
                 RCH =    51090739.5664                   RCH =      943476.2887     RCH_0           

            TOTAL IN =   291600720.7884              TOTAL IN =     3438332.3322

          OUT:                                     OUT:
          ----                                     ----
              STO-SS =           0.0000                STO-SS =           0.0000     STORAGE         
              STO-SY =    67679448.5957                STO-SY =      122212.5634     STORAGE         
                 WEL =     2386912.5831                   WEL =       58411.0539     WEL_0           
                 DRN =   221534359.6096                   DRN =     3257708.7149     DRN_0           
                 RCH =           0.0000                   RCH =           0.0000     RCH_0           

           TOTAL OUT =   291600720.7884             TOTAL OUT =     3438332.3322

            IN - OUT =       1.9252E-05              IN - OUT =       1.7299E-06

 PERCENT DISCREPANCY =           0.00     PERCENT DISCREPANCY =           0.00




         TIME SUMMARY AT END OF TIME STEP    1 IN STRESS PERIOD   82
                          TIME STEP LENGTH =    1.00000    
                        STRESS PERIOD TIME =    1.00000    
                     TOTAL SIMULATION TIME =    82.0000    

end timestep


start timestep kper="83" kstp="1" mode="normal"


 OUTPUT CONTROL FOR STRESS PERIOD 83 IS REPEATED USING SETTINGS FROM A PREVIOUS STRESS PERIOD.


 STRESS PERIOD 83 IS TRANSIENT


 REUSING WELS FROM LAST STRESS PERIOD

 REUSING DRNS FROM LAST STRESS PERIOD

 REUSING RCHS FROM LAST STRESS PERIOD


  VOLUME BUDGET FOR ENTIRE MODEL AT END OF TIME STEP    1, STRESS PERIOD  83
  ---------------------------------------------------------------------------------------------------

     CUMULATIVE VOLUME      L**3       RATES FOR THIS TIME STEP      L**3/T          PACKAGE NAME    
     ------------------                 ------------------------                     ----------------

           IN:                                      IN:
           ---                                      ---
              STO-SS =           0.0000                STO-SS =           0.0000     STORAGE         
              STO-SY =   242998195.6621                STO-SY =     2488214.4400     STORAGE         
                 WEL =           0.0000                   WEL =           0.0000     WEL_0           
                 DRN =           0.0000                   DRN =           0.0000     DRN_0           
                 RCH =    52009787.9349                   RCH =      919048.3685     RCH_0           

            TOTAL IN =   295007983.5970              TOTAL IN =     3407262.8086

          OUT:                                     OUT:
          ----                                     ----
              STO-SS =           0.0000                STO-SS =           0.0000     STORAGE         
              STO-SY =    67793780.8366                STO-SY =      114332.2409     STORAGE         
                 WEL =     2453123.7652                   WEL =       66211.1821     WEL_0           
                 DRN =   224761078.9952                   DRN =     3226719.3856     DRN_0           
                 RCH =           0.0000                   RCH =           0.0000     RCH_0           

           TOTAL OUT =   295007983.5969             TOTAL OUT =     3407262.8086

            IN - OUT =       2.2531E-05              IN - OUT =       3.2005E-06

 PERCENT DISCREPANCY =           0.00     PERCENT DISCREPANCY =           0.00




         TIME SUMMARY AT END OF TIME STEP    1 IN STRESS PERIOD   83
                          TIME STEP LENGTH =    1.00000    
                        STRESS PERIOD TIME =    1.00000    
                     TOTAL SIMULATION TIME =    83.0000    

end timestep


start timestep kper="84" kstp="1" mode="normal"


 OUTPUT CONTROL FOR STRESS PERIOD 84 IS REPEATED USING SETTINGS FROM A PREVIOUS STRESS PERIOD.


 STRESS PERIOD 84 IS TRANSIENT


 REUSING WELS FROM LAST STRESS PERIOD

 REUSING DRNS FROM LAST STRESS PERIOD

 REUSING RCHS FROM LAST STRESS PERIOD


  VOLUME BUDGET FOR ENTIRE MODEL AT END OF TIME STEP    1, STRESS PERIOD  84
  ---------------------------------------------------------------------------------------------------

     CUMULATIVE VOLUME      L**3       RATES FOR THIS TIME STEP      L**3/T          PACKAGE NAME    
     ------------------                 ------------------------                     ----------------

           IN:                                      IN:
           ---                                      ---
              STO-SS =           0.0000                STO-SS =           0.0000     STORAGE         
              STO-SY =   245471356.5154                STO-SY =     2473160.8533     STORAGE         
                 WEL =           0.0000                   WEL =           0.0000     WEL_0           
                 DRN =           0.0000                   DRN =           0.0000     DRN_0           
                 RCH =    52966099.6707                   RCH =      956311.7358     RCH_0           

            TOTAL IN =   298437456.1860              TOTAL IN =     3429472.5891

          OUT:                                     OUT:
          ----                                     ----
              STO-SS =           0.0000                STO-SS =           0.0000     STORAGE         
              STO-SY =    67911934.6260                STO-SY =      118153.7893     STORAGE         
                 WEL =     2506554.2076                   WEL =       53430.4424     WEL_0           
                 DRN =   228018967.3525                   DRN =     3257888.3574     DRN_0           
                 RCH =           0.0000                   RCH =           0.0000     RCH_0           

           TOTAL OUT =   298437456.1860             TOTAL OUT =     3429472.5891

            IN - OUT =       2.4199E-05              IN - OUT =       1.7094E-06

 PERCENT DISCREPANCY =           0.00     PERCENT DISCREPANCY =           0.00




         TIME SUMMARY AT END OF TIME STEP    1 IN STRESS PERIOD   84
                          TIME STEP LENGTH =    1.00000    
                        STRESS PERIOD TIME =    1.00000    
                     TOTAL SIMULATION TIME =    84.0000    

end timestep


start timestep kper="85" kstp="1" mode="normal"


 OUTPUT CONTROL FOR STRESS PERIOD 85 IS REPEATED USING SETTINGS FROM A PREVIOUS STRESS PERIOD.


 STRESS PERIOD 85 IS TRANSIENT


 REUSING WELS FROM LAST STRESS PERIOD

 REUSING DRNS FROM LAST STRESS PERIOD

 REUSING RCHS FROM LAST STRESS PERIOD


  VOLUME BUDGET FOR ENTIRE MODEL AT END OF TIME STEP    1, STRESS PERIOD  85
  ---------------------------------------------------------------------------------------------------

     CUMULATIVE VOLUME      L**3       RATES FOR THIS TIME STEP      L**3/T          PACKAGE NAME    
     ------------------                 ------------------------                     ----------------

           IN:                                      IN:
           ---                                      ---
              STO-SS =           0.0000                STO-SS =           0.0000     STORAGE         
              STO-SY =   247932712.0721                STO-SY =     2461355.5567     STORAGE         
                 WEL =           0.0000                   WEL =           0.0000     WEL_0           
                 DRN =           0.0000                   DRN =           0.0000     DRN_0           
                 RCH =    53896756.3802                   RCH =      930656.7095     RCH_0           

            TOTAL IN =   301829468.4523              TOTAL IN =     3392012.2662

          OUT:                                     OUT:
          ----                                     ----
              STO-SS =           0.0000                STO-SS =           0.0000     STORAGE         
              STO-SY =    68018704.7047                STO-SY =      106770.0787     STORAGE         
                 WEL =     2555706.8332                   WEL =       49152.6256     WEL_0           
                 DRN =   231255056.9144                   DRN =     3236089.5618     DRN_0           
                 RCH =           0.0000                   RCH =           0.0000     RCH_0           

           TOTAL OUT =   301829468.4522             TOTAL OUT =     3392012.2662

            IN - OUT =       2.4974E-05              IN - OUT =       7.8278E-07

 PERCENT DISCREPANCY =           0.00     PERCENT DISCREPANCY =           0.00




         TIME SUMMARY AT END OF TIME STEP    1 IN STRESS PERIOD   85
                          TIME STEP LENGTH =    1.00000    
                        STRESS PERIOD TIME =    1.00000    
                     TOTAL SIMULATION TIME =    85.0000    

end timestep


start timestep kper="86" kstp="1" mode="normal"


 OUTPUT CONTROL FOR STRESS PERIOD 86 IS REPEATED USING SETTINGS FROM A PREVIOUS STRESS PERIOD.


 STRESS PERIOD 86 IS TRANSIENT


 REUSING WELS FROM LAST STRESS PERIOD

 REUSING DRNS FROM LAST STRESS PERIOD

 REUSING RCHS FROM LAST STRESS PERIOD


  VOLUME BUDGET FOR ENTIRE MODEL AT END OF TIME STEP    1, STRESS PERIOD  86
  ---------------------------------------------------------------------------------------------------

     CUMULATIVE VOLUME      L**3       RATES FOR THIS TIME STEP      L**3/T          PACKAGE NAME    
     ------------------                 ------------------------                     ----------------

           IN:                                      IN:
           ---                                      ---
              STO-SS =           0.0000                STO-SS =           0.0000     STORAGE         
              STO-SY =   250405967.8189                STO-SY =     2473255.7469     STORAGE         
                 WEL =           0.0000                   WEL =           0.0000     WEL_0           
                 DRN =           0.0000                   DRN =           0.0000     DRN_0           
                 RCH =    54848409.7784                   RCH =      951653.3982     RCH_0           

            TOTAL IN =   305254377.5973              TOTAL IN =     3424909.1451

          OUT:                                     OUT:
          ----                                     ----
              STO-SS =           0.0000                STO-SS =           0.0000     STORAGE         
              STO-SY =    68121424.7860                STO-SY =      102720.0813     STORAGE         
                 WEL =     2621846.7300                   WEL =       66139.8968     WEL_0           
                 DRN =   234511106.0813                   DRN =     3256049.1669     DRN_0           
                 RCH =           0.0000                   RCH =           0.0000     RCH_0           

           TOTAL OUT =   305254377.5973             TOTAL OUT =     3424909.1451

            IN - OUT =       2.3544E-05              IN - OUT =      -1.4864E-06

 PERCENT DISCREPANCY =           0.00     PERCENT DISCREPANCY =          -0.00




         TIME SUMMARY AT END OF TIME STEP    1 IN STRESS PERIOD   86
                          TIME STEP LENGTH =    1.00000    
                        STRESS PERIOD TIME =    1.00000    
                     TOTAL SIMULATION TIME =    86.0000    

end timestep


start timestep kper="87" kstp="1" mode="normal"


 OUTPUT CONTROL FOR STRESS PERIOD 87 IS REPEATED USING SETTINGS FROM A PREVIOUS STRESS PERIOD.


 STRESS PERIOD 87 IS TRANSIENT


 REUSING WELS FROM LAST STRESS PERIOD

 REUSING DRNS FROM LAST STRESS PERIOD

 REUSING RCHS FROM LAST STRESS PERIOD


  VOLUME BUDGET FOR ENTIRE MODEL AT END OF TIME STEP    1, STRESS PERIOD  87
  ---------------------------------------------------------------------------------------------------

     CUMULATIVE VOLUME      L**3       RATES FOR THIS TIME STEP      L**3/T          PACKAGE NAME    
     ------------------                 ------------------------                     ----------------

           IN:                                      IN:
           ---                                      ---
              STO-SS =           0.0000                STO-SS =           0.0000     STORAGE         
              STO-SY =   252848075.2412                STO-SY =     2442107.4223     STORAGE         
                 WEL =           0.0000                   WEL =           0.0000     WEL_0           
                 DRN =           0.0000                   DRN =           0.0000     DRN_0           
                 RCH =    55793206.2283                   RCH =      944796.4499     RCH_0           

            TOTAL IN =   308641281.4695              TOTAL IN =     3386903.8722

          OUT:                                     OUT:
          ----                                     ----
              STO-SS =           0.0000                STO-SS =           0.0000     STORAGE         
              STO-SY =    68225217.1082                STO-SY =      103792.3222     STORAGE         
                 WEL =     2670699.6416                   WEL =       48852.9116     WEL_0           
                 DRN =   237745364.7197                   DRN =     3234258.6384     DRN_0           
                 RCH =           0.0000                   RCH =           0.0000     RCH_0           

           TOTAL OUT =   308641281.4695             TOTAL OUT =     3386903.8722

            IN - OUT =       2.2650E-05              IN - OUT =      -8.8103E-07

 PERCENT DISCREPANCY =           0.00     PERCENT DISCREPANCY =          -0.00




         TIME SUMMARY AT END OF TIME STEP    1 IN STRESS PERIOD   87
                          TIME STEP LENGTH =    1.00000    
                        STRESS PERIOD TIME =    1.00000    
                     TOTAL SIMULATION TIME =    87.0000    

end timestep


start timestep kper="88" kstp="1" mode="normal"


 OUTPUT CONTROL FOR STRESS PERIOD 88 IS REPEATED USING SETTINGS FROM A PREVIOUS STRESS PERIOD.


 STRESS PERIOD 88 IS TRANSIENT


 REUSING WELS FROM LAST STRESS PERIOD

 REUSING DRNS FROM LAST STRESS PERIOD

 REUSING RCHS FROM LAST STRESS PERIOD


  VOLUME BUDGET FOR ENTIRE MODEL AT END OF TIME STEP    1, STRESS PERIOD  88
  ---------------------------------------------------------------------------------------------------

     CUMULATIVE VOLUME      L**3       RATES FOR THIS TIME STEP      L**3/T          PACKAGE NAME    
     ------------------                 ------------------------                     ----------------

           IN:                                      IN:
           ---                                      ---
              STO-SS =           0.0000                STO-SS =           0.0000     STORAGE         
              STO-SY =   255273894.7060                STO-SY =     2425819.4648     STORAGE         
                 WEL =           0.0000                   WEL =           0.0000     WEL_0           
                 DRN =           0.0000                   DRN =           0.0000     DRN_0           
                 RCH =    56768602.9543                   RCH =      975396.7261     RCH_0           

            TOTAL IN =   312042497.6604              TOTAL IN =     3401216.1909

          OUT:                                     OUT:
          ----                                     ----
              STO-SS =           0.0000                STO-SS =           0.0000     STORAGE         
              STO-SY =    68322494.2399                STO-SY =       97277.1317     STORAGE         
                 WEL =     2712993.1737                   WEL =       42293.5321     WEL_0           
                 DRN =   241007010.2467                   DRN =     3261645.5270     DRN_0           
                 RCH =           0.0000                   RCH =           0.0000     RCH_0           

           TOTAL OUT =   312042497.6603             TOTAL OUT =     3401216.1909

            IN - OUT =       2.4199E-05              IN - OUT =       1.5618E-06

 PERCENT DISCREPANCY =           0.00     PERCENT DISCREPANCY =           0.00




         TIME SUMMARY AT END OF TIME STEP    1 IN STRESS PERIOD   88
                          TIME STEP LENGTH =    1.00000    
                        STRESS PERIOD TIME =    1.00000    
                     TOTAL SIMULATION TIME =    88.0000    

end timestep


start timestep kper="89" kstp="1" mode="normal"


 OUTPUT CONTROL FOR STRESS PERIOD 89 IS REPEATED USING SETTINGS FROM A PREVIOUS STRESS PERIOD.


 STRESS PERIOD 89 IS TRANSIENT


 REUSING WELS FROM LAST STRESS PERIOD

 REUSING DRNS FROM LAST STRESS PERIOD

 REUSING RCHS FROM LAST STRESS PERIOD


  VOLUME BUDGET FOR ENTIRE MODEL AT END OF TIME STEP    1, STRESS PERIOD  89
  ---------------------------------------------------------------------------------------------------

     CUMULATIVE VOLUME      L**3       RATES FOR THIS TIME STEP      L**3/T          PACKAGE NAME    
     ------------------                 ------------------------                     ----------------

           IN:                                      IN:
           ---                                      ---
              STO-SS =           0.0000                STO-SS =           0.0000     STORAGE         
              STO-SY =   257691675.0015                STO-SY =     2417780.2954     STORAGE         
                 WEL =           0.0000                   WEL =           0.0000     WEL_0           
                 DRN =           0.0000                   DRN =           0.0000     DRN_0           
                 RCH =    57728041.2176                   RCH =      959438.2633     RCH_0           

            TOTAL IN =   315419716.2190              TOTAL IN =     3377218.5587

          OUT:                                     OUT:
          ----                                     ----
              STO-SS =           0.0000                STO-SS =           0.0000     STORAGE         
              STO-SY =    68420573.6851                STO-SY =       98079.4452     STORAGE         
                 WEL =     2749025.8692                   WEL =       36032.6955     WEL_0           
                 DRN =   244250116.6647                   DRN =     3243106.4179     DRN_0           
                 RCH =           0.0000                   RCH =           0.0000     RCH_0           

           TOTAL OUT =   315419716.2190             TOTAL OUT =     3377218.5587

            IN - OUT =       2.6405E-05              IN - OUT =       2.2352E-06

 PERCENT DISCREPANCY =           0.00     PERCENT DISCREPANCY =           0.00




         TIME SUMMARY AT END OF TIME STEP    1 IN STRESS PERIOD   89
                          TIME STEP LENGTH =    1.00000    
                        STRESS PERIOD TIME =    1.00000    
                     TOTAL SIMULATION TIME =    89.0000    

end timestep


start timestep kper="90" kstp="1" mode="normal"


 OUTPUT CONTROL FOR STRESS PERIOD 90 IS REPEATED USING SETTINGS FROM A PREVIOUS STRESS PERIOD.


 STRESS PERIOD 90 IS TRANSIENT


 REUSING WELS FROM LAST STRESS PERIOD

 REUSING DRNS FROM LAST STRESS PERIOD

 REUSING RCHS FROM LAST STRESS PERIOD


  VOLUME BUDGET FOR ENTIRE MODEL AT END OF TIME STEP    1, STRESS PERIOD  90
  ---------------------------------------------------------------------------------------------------

     CUMULATIVE VOLUME      L**3       RATES FOR THIS TIME STEP      L**3/T          PACKAGE NAME    
     ------------------                 ------------------------                     ----------------

           IN:                                      IN:
           ---                                      ---
              STO-SS =           0.0000                STO-SS =           0.0000     STORAGE         
              STO-SY =   260095593.6681                STO-SY =     2403918.6666     STORAGE         
                 WEL =           0.0000                   WEL =           0.0000     WEL_0           
                 DRN =           0.0000                   DRN =           0.0000     DRN_0           
                 RCH =    58736541.2020                   RCH =     1008499.9844     RCH_0           

            TOTAL IN =   318832134.8701              TOTAL IN =     3412418.6510

          OUT:                                     OUT:
          ----                                     ----
              STO-SS =           0.0000                STO-SS =           0.0000     STORAGE         
              STO-SY =    68518232.6632                STO-SY =       97658.9780     STORAGE         
                 WEL =     2797146.3934                   WEL =       48120.5242     WEL_0           
                 DRN =   247516755.8135                   DRN =     3266639.1488     DRN_0           
                 RCH =           0.0000                   RCH =           0.0000     RCH_0           

           TOTAL OUT =   318832134.8700             TOTAL OUT =     3412418.6510

            IN - OUT =       2.4140E-05              IN - OUT =      -2.2515E-06

 PERCENT DISCREPANCY =           0.00     PERCENT DISCREPANCY =          -0.00




         TIME SUMMARY AT END OF TIME STEP    1 IN STRESS PERIOD   90
                          TIME STEP LENGTH =    1.00000    
                        STRESS PERIOD TIME =    1.00000    
                     TOTAL SIMULATION TIME =    90.0000    

end timestep


start timestep kper="91" kstp="1" mode="normal"


 OUTPUT CONTROL FOR STRESS PERIOD 91 IS REPEATED USING SETTINGS FROM A PREVIOUS STRESS PERIOD.


 STRESS PERIOD 91 IS TRANSIENT


 REUSING WELS FROM LAST STRESS PERIOD

 REUSING DRNS FROM LAST STRESS PERIOD

 REUSING RCHS FROM LAST STRESS PERIOD


  VOLUME BUDGET FOR ENTIRE MODEL AT END OF TIME STEP    1, STRESS PERIOD  91
  ---------------------------------------------------------------------------------------------------

     CUMULATIVE VOLUME      L**3       RATES FOR THIS TIME STEP      L**3/T          PACKAGE NAME    
     ------------------                 ------------------------                     ----------------

           IN:                                      IN:
           ---                                      ---
              STO-SS =           0.0000                STO-SS =           0.0000     STORAGE         
              STO-SY =   262475479.2494                STO-SY =     2379885.5813     STORAGE         
                 WEL =           0.0000                   WEL =           0.0000     WEL_0           
                 DRN =           0.0000                   DRN =           0.0000     DRN_0           
                 RCH =    59750008.7695                   RCH =     1013467.5676     RCH_0           

            TOTAL IN =   322225488.0189              TOTAL IN =     3393353.1488

          OUT:                                     OUT:
          ----                                     ----
              STO-SS =           0.0000                STO-SS =           0.0000     STORAGE         
              STO-SY =    68616780.6187                STO-SY =       98547.9556     STORAGE         
                 WEL =     2832646.5645                   WEL =       35500.1711     WEL_0           
                 DRN =   250776060.8356                   DRN =     3259305.0221     DRN_0           
                 RCH =           0.0000                   RCH =           0.0000     RCH_0           

           TOTAL OUT =   322225488.0189             TOTAL OUT =     3393353.1488

            IN - OUT =       2.5988E-05              IN - OUT =       1.7979E-06

 PERCENT DISCREPANCY =           0.00     PERCENT DISCREPANCY =           0.00




         TIME SUMMARY AT END OF TIME STEP    1 IN STRESS PERIOD   91
                          TIME STEP LENGTH =    1.00000    
                        STRESS PERIOD TIME =    1.00000    
                     TOTAL SIMULATION TIME =    91.0000    

end timestep


start timestep kper="92" kstp="1" mode="normal"


 OUTPUT CONTROL FOR STRESS PERIOD 92 IS REPEATED USING SETTINGS FROM A PREVIOUS STRESS PERIOD.


 STRESS PERIOD 92 IS TRANSIENT


 REUSING WELS FROM LAST STRESS PERIOD

 REUSING DRNS FROM LAST STRESS PERIOD

 REUSING RCHS FROM LAST STRESS PERIOD


  VOLUME BUDGET FOR ENTIRE MODEL AT END OF TIME STEP    1, STRESS PERIOD  92
  ---------------------------------------------------------------------------------------------------

     CUMULATIVE VOLUME      L**3       RATES FOR THIS TIME STEP      L**3/T          PACKAGE NAME    
     ------------------                 ------------------------                     ----------------

           IN:                                      IN:
           ---                                      ---
              STO-SS =           0.0000                STO-SS =           0.0000     STORAGE         
              STO-SY =   264833016.9091                STO-SY =     2357537.6598     STORAGE         
                 WEL =           0.0000                   WEL =           0.0000     WEL_0           
                 DRN =           0.0000                   DRN =           0.0000     DRN_0           
                 RCH =    60805722.0519                   RCH =     1055713.2823     RCH_0           

            TOTAL IN =   325638738.9610              TOTAL IN =     3413250.9421

          OUT:                                     OUT:
          ----                                     ----
              STO-SS =           0.0000                STO-SS =           0.0000     STORAGE         
              STO-SY =    68713158.4280                STO-SY =       96377.8093     STORAGE         
                 WEL =     2864821.3540                   WEL =       32174.7894     WEL_0           
                 DRN =   254060759.1790                   DRN =     3284698.3434     DRN_0           
                 RCH =           0.0000                   RCH =           0.0000     RCH_0           

           TOTAL OUT =   325638738.9610             TOTAL OUT =     3413250.9421

            IN - OUT =       2.4796E-05              IN - OUT =      -1.1278E-06

 PERCENT DISCREPANCY =           0.00     PERCENT DISCREPANCY =          -0.00




         TIME SUMMARY AT END OF TIME STEP    1 IN STRESS PERIOD   92
                          TIME STEP LENGTH =    1.00000    
                        STRESS PERIOD TIME =    1.00000    
                     TOTAL SIMULATION TIME =    92.0000    

end timestep


start timestep kper="93" kstp="1" mode="normal"


 OUTPUT CONTROL FOR STRESS PERIOD 93 IS REPEATED USING SETTINGS FROM A PREVIOUS STRESS PERIOD.


 STRESS PERIOD 93 IS TRANSIENT


 REUSING WELS FROM LAST STRESS PERIOD

 REUSING DRNS FROM LAST STRESS PERIOD

 REUSING RCHS FROM LAST STRESS PERIOD


  VOLUME BUDGET FOR ENTIRE MODEL AT END OF TIME STEP    1, STRESS PERIOD  93
  ---------------------------------------------------------------------------------------------------

     CUMULATIVE VOLUME      L**3       RATES FOR THIS TIME STEP      L**3/T          PACKAGE NAME    
     ------------------                 ------------------------                     ----------------

           IN:                                      IN:
           ---                                      ---
              STO-SS =           0.0000                STO-SS =           0.0000     STORAGE         
              STO-SY =   267227669.9225                STO-SY =     2394653.0133     STORAGE         
                 WEL =           0.0000                   WEL =           0.0000     WEL_0           
                 DRN =           0.0000                   DRN =           0.0000     DRN_0           
                 RCH =    61805102.0861                   RCH =      999380.0342     RCH_0           

            TOTAL IN =   329032772.0085              TOTAL IN =     3394033.0475

          OUT:                                     OUT:
          ----                                     ----
              STO-SS =           0.0000                STO-SS =           0.0000     STORAGE         
              STO-SY =    68804853.8457                STO-SY =       91695.4177     STORAGE         
                 WEL =     2926059.2918                   WEL =       61237.9378     WEL_0           
                 DRN =   257301858.8710                   DRN =     3241099.6920     DRN_0           
                 RCH =           0.0000                   RCH =           0.0000     RCH_0           

           TOTAL OUT =   329032772.0085             TOTAL OUT =     3394033.0475

            IN - OUT =       2.5749E-05              IN - OUT =       9.4948E-07

 PERCENT DISCREPANCY =           0.00     PERCENT DISCREPANCY =           0.00




         TIME SUMMARY AT END OF TIME STEP    1 IN STRESS PERIOD   93
                          TIME STEP LENGTH =    1.00000    
                        STRESS PERIOD TIME =    1.00000    
                     TOTAL SIMULATION TIME =    93.0000    

end timestep


start timestep kper="94" kstp="1" mode="normal"


 OUTPUT CONTROL FOR STRESS PERIOD 94 IS REPEATED USING SETTINGS FROM A PREVIOUS STRESS PERIOD.


 STRESS PERIOD 94 IS TRANSIENT


 REUSING WELS FROM LAST STRESS PERIOD

 REUSING DRNS FROM LAST STRESS PERIOD

 REUSING RCHS FROM LAST STRESS PERIOD


  VOLUME BUDGET FOR ENTIRE MODEL AT END OF TIME STEP    1, STRESS PERIOD  94
  ---------------------------------------------------------------------------------------------------

     CUMULATIVE VOLUME      L**3       RATES FOR THIS TIME STEP      L**3/T          PACKAGE NAME    
     ------------------                 ------------------------                     ----------------

           IN:                                      IN:
           ---                                      ---
              STO-SS =           0.0000                STO-SS =           0.0000     STORAGE         
              STO-SY =   269591611.4329                STO-SY =     2363941.5104     STORAGE         
                 WEL =           0.0000                   WEL =           0.0000     WEL_0           
                 DRN =           0.0000                   DRN =           0.0000     DRN_0           
                 RCH =    62828686.6021                   RCH =     1023584.5160     RCH_0           

            TOTAL IN =   332420298.0350              TOTAL IN =     3387526.0264

          OUT:                                     OUT:
          ----                                     ----
              STO-SS =           0.0000                STO-SS =           0.0000     STORAGE         
              STO-SY =    68895529.3258                STO-SY =       90675.4801     STORAGE         
                 WEL =     2964177.0051                   WEL =       38117.7133     WEL_0           
                 DRN =   260560591.7040                   DRN =     3258732.8330     DRN_0           
                 RCH =           0.0000                   RCH =           0.0000     RCH_0           

           TOTAL OUT =   332420298.0349             TOTAL OUT =     3387526.0264

            IN - OUT =       2.6345E-05              IN - OUT =       5.9046E-07

 PERCENT DISCREPANCY =           0.00     PERCENT DISCREPANCY =           0.00




         TIME SUMMARY AT END OF TIME STEP    1 IN STRESS PERIOD   94
                          TIME STEP LENGTH =    1.00000    
                        STRESS PERIOD TIME =    1.00000    
                     TOTAL SIMULATION TIME =    94.0000    

end timestep


start timestep kper="95" kstp="1" mode="normal"


 OUTPUT CONTROL FOR STRESS PERIOD 95 IS REPEATED USING SETTINGS FROM A PREVIOUS STRESS PERIOD.


 STRESS PERIOD 95 IS TRANSIENT


 REUSING WELS FROM LAST STRESS PERIOD

 REUSING DRNS FROM LAST STRESS PERIOD

 REUSING RCHS FROM LAST STRESS PERIOD


  VOLUME BUDGET FOR ENTIRE MODEL AT END OF TIME STEP    1, STRESS PERIOD  95
  ---------------------------------------------------------------------------------------------------

     CUMULATIVE VOLUME      L**3       RATES FOR THIS TIME STEP      L**3/T          PACKAGE NAME    
     ------------------                 ------------------------                     ----------------

           IN:                                      IN:
           ---                                      ---
              STO-SS =           0.0000                STO-SS =           0.0000     STORAGE         
              STO-SY =   271972480.6388                STO-SY =     2380869.2060     STORAGE         
                 WEL =           0.0000                   WEL =           0.0000     WEL_0           
                 DRN =           0.0000                   DRN =           0.0000     DRN_0           
                 RCH =    63828578.1722                   RCH =      999891.5701     RCH_0           

            TOTAL IN =   335801058.8111              TOTAL IN =     3380760.7761

          OUT:                                     OUT:
          ----                                     ----
              STO-SS =           0.0000                STO-SS =           0.0000     STORAGE         
              STO-SY =    68986210.3863                STO-SY =       90681.0604     STORAGE         
                 WEL =     3031524.2357                   WEL =       67347.2306     WEL_0           
                 DRN =   263783324.1890                   DRN =     3222732.4850     DRN_0           
                 RCH =           0.0000                   RCH =           0.0000     RCH_0           

           TOTAL OUT =   335801058.8110             TOTAL OUT =     3380760.7761

            IN - OUT =       2.6166E-05              IN - OUT =      -2.1560E-07

 PERCENT DISCREPANCY =           0.00     PERCENT DISCREPANCY =          -0.00




         TIME SUMMARY AT END OF TIME STEP    1 IN STRESS PERIOD   95
                          TIME STEP LENGTH =    1.00000    
                        STRESS PERIOD TIME =    1.00000    
                     TOTAL SIMULATION TIME =    95.0000    

end timestep


start timestep kper="96" kstp="1" mode="normal"


 OUTPUT CONTROL FOR STRESS PERIOD 96 IS REPEATED USING SETTINGS FROM A PREVIOUS STRESS PERIOD.


 STRESS PERIOD 96 IS TRANSIENT


 REUSING WELS FROM LAST STRESS PERIOD

 REUSING DRNS FROM LAST STRESS PERIOD

 REUSING RCHS FROM LAST STRESS PERIOD


  VOLUME BUDGET FOR ENTIRE MODEL AT END OF TIME STEP    1, STRESS PERIOD  96
  ---------------------------------------------------------------------------------------------------

     CUMULATIVE VOLUME      L**3       RATES FOR THIS TIME STEP      L**3/T          PACKAGE NAME    
     ------------------                 ------------------------                     ----------------

           IN:                                      IN:
           ---                                      ---
              STO-SS =           0.0000                STO-SS =           0.0000     STORAGE         
              STO-SY =   274334443.4846                STO-SY =     2361962.8457     STORAGE         
                 WEL =           0.0000                   WEL =           0.0000     WEL_0           
                 DRN =           0.0000                   DRN =           0.0000     DRN_0           
                 RCH =    64849958.2011                   RCH =     1021380.0289     RCH_0           

            TOTAL IN =   339184401.6856              TOTAL IN =     3383342.8746

          OUT:                                     OUT:
          ----                                     ----
              STO-SS =           0.0000                STO-SS =           0.0000     STORAGE         
              STO-SY =    69075906.9885                STO-SY =       89696.6022     STORAGE         
                 WEL =     3074778.9692                   WEL =       43254.7334     WEL_0           
                 DRN =   267033715.7280                   DRN =     3250391.5389     DRN_0           
                 RCH =           0.0000                   RCH =           0.0000     RCH_0           

           TOTAL OUT =   339184401.6856             TOTAL OUT =     3383342.8746

            IN - OUT =       2.3544E-05              IN - OUT =      -2.6515E-06

 PERCENT DISCREPANCY =           0.00     PERCENT DISCREPANCY =          -0.00




         TIME SUMMARY AT END OF TIME STEP    1 IN STRESS PERIOD   96
                          TIME STEP LENGTH =    1.00000    
                        STRESS PERIOD TIME =    1.00000    
                     TOTAL SIMULATION TIME =    96.0000    

end timestep


start timestep kper="97" kstp="1" mode="normal"


 OUTPUT CONTROL FOR STRESS PERIOD 97 IS REPEATED USING SETTINGS FROM A PREVIOUS STRESS PERIOD.


 STRESS PERIOD 97 IS TRANSIENT


 REUSING WELS FROM LAST STRESS PERIOD

 REUSING DRNS FROM LAST STRESS PERIOD

 REUSING RCHS FROM LAST STRESS PERIOD


  VOLUME BUDGET FOR ENTIRE MODEL AT END OF TIME STEP    1, STRESS PERIOD  97
  ---------------------------------------------------------------------------------------------------

     CUMULATIVE VOLUME      L**3       RATES FOR THIS TIME STEP      L**3/T          PACKAGE NAME    
     ------------------                 ------------------------                     ----------------

           IN:                                      IN:
           ---                                      ---
              STO-SS =           0.0000                STO-SS =           0.0000     STORAGE         
              STO-SY =   276668310.0533                STO-SY =     2333866.5687     STORAGE         
                 WEL =           0.0000                   WEL =           0.0000     WEL_0           
                 DRN =           0.0000                   DRN =           0.0000     DRN_0           
                 RCH =    65875969.6799                   RCH =     1026011.4788     RCH_0           

            TOTAL IN =   342544279.7332              TOTAL IN =     3359878.0476

          OUT:                                     OUT:
          ----                                     ----
              STO-SS =           0.0000                STO-SS =           0.0000     STORAGE         
              STO-SY =    69163804.5722                STO-SY =       87897.5837     STORAGE         
                 WEL =     3112965.4149                   WEL =       38186.4457     WEL_0           
                 DRN =   270267509.7461                   DRN =     3233794.0181     DRN_0           
                 RCH =           0.0000                   RCH =           0.0000     RCH_0           

           TOTAL OUT =   342544279.7332             TOTAL OUT =     3359878.0476

            IN - OUT =       2.5094E-05              IN - OUT =       1.5548E-06

 PERCENT DISCREPANCY =           0.00     PERCENT DISCREPANCY =           0.00




         TIME SUMMARY AT END OF TIME STEP    1 IN STRESS PERIOD   97
                          TIME STEP LENGTH =    1.00000    
                        STRESS PERIOD TIME =    1.00000    
                     TOTAL SIMULATION TIME =    97.0000    

end timestep


start timestep kper="98" kstp="1" mode="normal"


 OUTPUT CONTROL FOR STRESS PERIOD 98 IS REPEATED USING SETTINGS FROM A PREVIOUS STRESS PERIOD.


 STRESS PERIOD 98 IS TRANSIENT


 REUSING WELS FROM LAST STRESS PERIOD

 REUSING DRNS FROM LAST STRESS PERIOD

 REUSING RCHS FROM LAST STRESS PERIOD


  VOLUME BUDGET FOR ENTIRE MODEL AT END OF TIME STEP    1, STRESS PERIOD  98
  ---------------------------------------------------------------------------------------------------

     CUMULATIVE VOLUME      L**3       RATES FOR THIS TIME STEP      L**3/T          PACKAGE NAME    
     ------------------                 ------------------------                     ----------------

           IN:                                      IN:
           ---                                      ---
              STO-SS =           0.0000                STO-SS =           0.0000     STORAGE         
              STO-SY =   279022637.1531                STO-SY =     2354327.0999     STORAGE         
                 WEL =           0.0000                   WEL =           0.0000     WEL_0           
                 DRN =           0.0000                   DRN =           0.0000     DRN_0           
                 RCH =    66917063.6012                   RCH =     1041093.9212     RCH_0           

            TOTAL IN =   345939700.7543              TOTAL IN =     3395421.0211

          OUT:                                     OUT:
          ----                                     ----
              STO-SS =           0.0000                STO-SS =           0.0000     STORAGE         
              STO-SY =    69250044.7298                STO-SY =       86240.1576     STORAGE         
                 WEL =     3176001.1679                   WEL =       63035.7530     WEL_0           
                 DRN =   273513654.8566                   DRN =     3246145.1105     DRN_0           
                 RCH =           0.0000                   RCH =           0.0000     RCH_0           

           TOTAL OUT =   345939700.7543             TOTAL OUT =     3395421.0211

            IN - OUT =       2.4319E-05              IN - OUT =      -7.8883E-07

 PERCENT DISCREPANCY =           0.00     PERCENT DISCREPANCY =          -0.00




         TIME SUMMARY AT END OF TIME STEP    1 IN STRESS PERIOD   98
                          TIME STEP LENGTH =    1.00000    
                        STRESS PERIOD TIME =    1.00000    
                     TOTAL SIMULATION TIME =    98.0000    

end timestep


start timestep kper="99" kstp="1" mode="normal"


 OUTPUT CONTROL FOR STRESS PERIOD 99 IS REPEATED USING SETTINGS FROM A PREVIOUS STRESS PERIOD.


 STRESS PERIOD 99 IS TRANSIENT


 REUSING WELS FROM LAST STRESS PERIOD

 REUSING DRNS FROM LAST STRESS PERIOD

 REUSING RCHS FROM LAST STRESS PERIOD


  VOLUME BUDGET FOR ENTIRE MODEL AT END OF TIME STEP    1, STRESS PERIOD  99
  ---------------------------------------------------------------------------------------------------

     CUMULATIVE VOLUME      L**3       RATES FOR THIS TIME STEP      L**3/T          PACKAGE NAME    
     ------------------                 ------------------------                     ----------------

           IN:                                      IN:
           ---                                      ---
              STO-SS =           0.0000                STO-SS =           0.0000     STORAGE         
              STO-SY =   281363983.9456                STO-SY =     2341346.7925     STORAGE         
                 WEL =           0.0000                   WEL =           0.0000     WEL_0           
                 DRN =           0.0000                   DRN =           0.0000     DRN_0           
                 RCH =    67922014.8760                   RCH =     1004951.2748     RCH_0           

            TOTAL IN =   349285998.8216              TOTAL IN =     3346298.0673

          OUT:                                     OUT:
          ----                                     ----
              STO-SS =           0.0000                STO-SS =           0.0000     STORAGE         
              STO-SY =    69332943.0926                STO-SY =       82898.3628     STORAGE         
                 WEL =     3218629.3240                   WEL =       42628.1560     WEL_0           
                 DRN =   276734426.4050                   DRN =     3220771.5484     DRN_0           
                 RCH =           0.0000                   RCH =           0.0000     RCH_0           

           TOTAL OUT =   349285998.8216             TOTAL OUT =     3346298.0673

            IN - OUT =       2.3067E-05              IN - OUT =      -1.2363E-06

 PERCENT DISCREPANCY =           0.00     PERCENT DISCREPANCY =          -0.00




         TIME SUMMARY AT END OF TIME STEP    1 IN STRESS PERIOD   99
                          TIME STEP LENGTH =    1.00000    
                        STRESS PERIOD TIME =    1.00000    
                     TOTAL SIMULATION TIME =    99.0000    

end timestep


start timestep kper="100" kstp="1" mode="normal"


 OUTPUT CONTROL FOR STRESS PERIOD 100 IS REPEATED USING SETTINGS FROM A PREVIOUS STRESS PERIOD.


 STRESS PERIOD 100 IS TRANSIENT


 REUSING WELS FROM LAST STRESS PERIOD

 REUSING DRNS FROM LAST STRESS PERIOD

 REUSING RCHS FROM LAST STRESS PERIOD


  VOLUME BUDGET FOR ENTIRE MODEL AT END OF TIME STEP    1, STRESS PERIOD 100
  ---------------------------------------------------------------------------------------------------

     CUMULATIVE VOLUME      L**3       RATES FOR THIS TIME STEP      L**3/T          PACKAGE NAME    
     ------------------                 ------------------------                     ----------------

           IN:                                      IN:
           ---                                      ---
              STO-SS =           0.0000                STO-SS =           0.0000     STORAGE         
              STO-SY =   283700244.4996                STO-SY =     2336260.5540     STORAGE         
                 WEL =           0.0000                   WEL =           0.0000     WEL_0           
                 DRN =           0.0000                   DRN =           0.0000     DRN_0           
                 RCH =    68980212.7975                   RCH =     1058197.9215     RCH_0           

            TOTAL IN =   352680457.2971              TOTAL IN =     3394458.4755

          OUT:                                     OUT:
          ----                                     ----
              STO-SS =           0.0000                STO-SS =           0.0000     STORAGE         
              STO-SY =    69414636.5470                STO-SY =       81693.4544     STORAGE         
                 WEL =     3279058.3481                   WEL =       60429.0242     WEL_0           
                 DRN =   279986762.4020                   DRN =     3252335.9970     DRN_0           
                 RCH =           0.0000                   RCH =           0.0000     RCH_0           

           TOTAL OUT =   352680457.2971             TOTAL OUT =     3394458.4755

            IN - OUT =       2.3127E-05              IN - OUT =      -3.6322E-08

 PERCENT DISCREPANCY =           0.00     PERCENT DISCREPANCY =          -0.00




         TIME SUMMARY AT END OF TIME STEP    1 IN STRESS PERIOD  100
                          TIME STEP LENGTH =    1.00000    
                        STRESS PERIOD TIME =    1.00000    
                     TOTAL SIMULATION TIME =    100.000    

end timestep


start timestep kper="101" kstp="1" mode="normal"


 OUTPUT CONTROL FOR STRESS PERIOD 101 IS REPEATED USING SETTINGS FROM A PREVIOUS STRESS PERIOD.


 STRESS PERIOD 101 IS TRANSIENT


 REUSING WELS FROM LAST STRESS PERIOD

 REUSING DRNS FROM LAST STRESS PERIOD

 REUSING RCHS FROM LAST STRESS PERIOD


  VOLUME BUDGET FOR ENTIRE MODEL AT END OF TIME STEP    1, STRESS PERIOD 101
  ---------------------------------------------------------------------------------------------------

     CUMULATIVE VOLUME      L**3       RATES FOR THIS TIME STEP      L**3/T          PACKAGE NAME    
     ------------------                 ------------------------                     ----------------

           IN:                                      IN:
           ---                                      ---
              STO-SS =           0.0000                STO-SS =           0.0000     STORAGE         
              STO-SY =   286000338.0558                STO-SY =     2300093.5562     STORAGE         
                 WEL =           0.0000                   WEL =           0.0000     WEL_0           
                 DRN =           0.0000                   DRN =           0.0000     DRN_0           
                 RCH =    70035045.2098                   RCH =     1054832.4123     RCH_0           

            TOTAL IN =   356035383.2656              TOTAL IN =     3354925.9685

          OUT:                                     OUT:
          ----                                     ----
              STO-SS =           0.0000                STO-SS =           0.0000     STORAGE         
              STO-SY =    69491913.4806                STO-SY =       77276.9336     STORAGE         
                 WEL =     3318798.4456                   WEL =       39740.0974     WEL_0           
                 DRN =   283224671.3394                   DRN =     3237908.9374     DRN_0           
                 RCH =           0.0000                   RCH =           0.0000     RCH_0           

           TOTAL OUT =   356035383.2656             TOTAL OUT =     3354925.9685

            IN - OUT =       2.2233E-05              IN - OUT =      -7.5810E-07

 PERCENT DISCREPANCY =           0.00     PERCENT DISCREPANCY =          -0.00




         TIME SUMMARY AT END OF TIME STEP    1 IN STRESS PERIOD  101
                          TIME STEP LENGTH =    1.00000    
                        STRESS PERIOD TIME =    1.00000    
                     TOTAL SIMULATION TIME =    101.000    

end timestep


start timestep kper="102" kstp="1" mode="normal"


 OUTPUT CONTROL FOR STRESS PERIOD 102 IS REPEATED USING SETTINGS FROM A PREVIOUS STRESS PERIOD.


 STRESS PERIOD 102 IS TRANSIENT


 REUSING WELS FROM LAST STRESS PERIOD

 REUSING DRNS FROM LAST STRESS PERIOD

 REUSING RCHS FROM LAST STRESS PERIOD


  VOLUME BUDGET FOR ENTIRE MODEL AT END OF TIME STEP    1, STRESS PERIOD 102
  ---------------------------------------------------------------------------------------------------

     CUMULATIVE VOLUME      L**3       RATES FOR THIS TIME STEP      L**3/T          PACKAGE NAME    
     ------------------                 ------------------------                     ----------------

           IN:                                      IN:
           ---                                      ---
              STO-SS =           0.0000                STO-SS =           0.0000     STORAGE         
              STO-SY =   288330026.4330                STO-SY =     2329688.3772     STORAGE         
                 WEL =           0.0000                   WEL =           0.0000     WEL_0           
                 DRN =           0.0000                   DRN =           0.0000     DRN_0           
                 RCH =    71081553.7094                   RCH =     1046508.4996     RCH_0           

            TOTAL IN =   359411580.1424              TOTAL IN =     3376196.8768

          OUT:                                     OUT:
          ----                                     ----
              STO-SS =           0.0000                STO-SS =           0.0000     STORAGE         
              STO-SY =    69566050.1705                STO-SY =       74136.6899     STORAGE         
                 WEL =     3373132.2735                   WEL =       54333.8280     WEL_0           
                 DRN =   286472397.6983                   DRN =     3247726.3589     DRN_0           
                 RCH =           0.0000                   RCH =           0.0000     RCH_0           

           TOTAL OUT =   359411580.1423             TOTAL OUT =     3376196.8768

            IN - OUT =       2.1219E-05              IN - OUT =      -1.0296E-06

 PERCENT DISCREPANCY =           0.00     PERCENT DISCREPANCY =          -0.00




         TIME SUMMARY AT END OF TIME STEP    1 IN STRESS PERIOD  102
                          TIME STEP LENGTH =    1.00000    
                        STRESS PERIOD TIME =    1.00000    
                     TOTAL SIMULATION TIME =    102.000    

end timestep


start timestep kper="103" kstp="1" mode="normal"


 OUTPUT CONTROL FOR STRESS PERIOD 103 IS REPEATED USING SETTINGS FROM A PREVIOUS STRESS PERIOD.


 STRESS PERIOD 103 IS TRANSIENT


 REUSING WELS FROM LAST STRESS PERIOD

 REUSING DRNS FROM LAST STRESS PERIOD

 REUSING RCHS FROM LAST STRESS PERIOD


  VOLUME BUDGET FOR ENTIRE MODEL AT END OF TIME STEP    1, STRESS PERIOD 103
  ---------------------------------------------------------------------------------------------------

     CUMULATIVE VOLUME      L**3       RATES FOR THIS TIME STEP      L**3/T          PACKAGE NAME    
     ------------------                 ------------------------                     ----------------

           IN:                                      IN:
           ---                                      ---
              STO-SS =           0.0000                STO-SS =           0.0000     STORAGE         
              STO-SY =   290598988.5041                STO-SY =     2268962.0712     STORAGE         
                 WEL =           0.0000                   WEL =           0.0000     WEL_0           
                 DRN =           0.0000                   DRN =           0.0000     DRN_0           
                 RCH =    72182377.9263                   RCH =     1100824.2169     RCH_0           

            TOTAL IN =   362781366.4304              TOTAL IN =     3369786.2881

          OUT:                                     OUT:
          ----                                     ----
              STO-SS =           0.0000                STO-SS =           0.0000     STORAGE         
              STO-SY =    69648434.2282                STO-SY =       82384.0577     STORAGE         
                 WEL =     3410891.9524                   WEL =       37759.6788     WEL_0           
                 DRN =   289722040.2499                   DRN =     3249642.5516     DRN_0           
                 RCH =           0.0000                   RCH =           0.0000     RCH_0           

           TOTAL OUT =   362781366.4304             TOTAL OUT =     3369786.2881

            IN - OUT =       2.0683E-05              IN - OUT =      -5.4948E-07

 PERCENT DISCREPANCY =           0.00     PERCENT DISCREPANCY =          -0.00




         TIME SUMMARY AT END OF TIME STEP    1 IN STRESS PERIOD  103
                          TIME STEP LENGTH =    1.00000    
                        STRESS PERIOD TIME =    1.00000    
                     TOTAL SIMULATION TIME =    103.000    

end timestep


start timestep kper="104" kstp="1" mode="normal"


 OUTPUT CONTROL FOR STRESS PERIOD 104 IS REPEATED USING SETTINGS FROM A PREVIOUS STRESS PERIOD.


 STRESS PERIOD 104 IS TRANSIENT


 REUSING WELS FROM LAST STRESS PERIOD

 REUSING DRNS FROM LAST STRESS PERIOD

 REUSING RCHS FROM LAST STRESS PERIOD


  VOLUME BUDGET FOR ENTIRE MODEL AT END OF TIME STEP    1, STRESS PERIOD 104
  ---------------------------------------------------------------------------------------------------

     CUMULATIVE VOLUME      L**3       RATES FOR THIS TIME STEP      L**3/T          PACKAGE NAME    
     ------------------                 ------------------------                     ----------------

           IN:                                      IN:
           ---                                      ---
              STO-SS =           0.0000                STO-SS =           0.0000     STORAGE         
              STO-SY =   292862840.1956                STO-SY =     2263851.6914     STORAGE         
                 WEL =           0.0000                   WEL =           0.0000     WEL_0           
                 DRN =           0.0000                   DRN =           0.0000     DRN_0           
                 RCH =    73314110.7157                   RCH =     1131732.7894     RCH_0           

            TOTAL IN =   366176950.9113              TOTAL IN =     3395584.4809

          OUT:                                     OUT:
          ----                                     ----
              STO-SS =           0.0000                STO-SS =           0.0000     STORAGE         
              STO-SY =    69725502.2994                STO-SY =       77068.0712     STORAGE         
                 WEL =     3444591.0655                   WEL =       33699.1132     WEL_0           
                 DRN =   293006857.5463                   DRN =     3284817.2965     DRN_0           
                 RCH =           0.0000                   RCH =           0.0000     RCH_0           

           TOTAL OUT =   366176950.9113             TOTAL OUT =     3395584.4809

            IN - OUT =       1.7047E-05              IN - OUT =      -3.5926E-06

 PERCENT DISCREPANCY =           0.00     PERCENT DISCREPANCY =          -0.00




         TIME SUMMARY AT END OF TIME STEP    1 IN STRESS PERIOD  104
                          TIME STEP LENGTH =    1.00000    
                        STRESS PERIOD TIME =    1.00000    
                     TOTAL SIMULATION TIME =    104.000    

end timestep


start timestep kper="105" kstp="1" mode="normal"


 OUTPUT CONTROL FOR STRESS PERIOD 105 IS REPEATED USING SETTINGS FROM A PREVIOUS STRESS PERIOD.


 STRESS PERIOD 105 IS TRANSIENT


 REUSING WELS FROM LAST STRESS PERIOD

 REUSING DRNS FROM LAST STRESS PERIOD

 REUSING RCHS FROM LAST STRESS PERIOD


  VOLUME BUDGET FOR ENTIRE MODEL AT END OF TIME STEP    1, STRESS PERIOD 105
  ---------------------------------------------------------------------------------------------------

     CUMULATIVE VOLUME      L**3       RATES FOR THIS TIME STEP      L**3/T          PACKAGE NAME    
     ------------------                 ------------------------                     ----------------

           IN:                                      IN:
           ---                                      ---
              STO-SS =           0.0000                STO-SS =           0.0000     STORAGE         
              STO-SY =   295091613.2714                STO-SY =     2228773.0758     STORAGE         
                 WEL =           0.0000                   WEL =           0.0000     WEL_0           
                 DRN =           0.0000                   DRN =           0.0000     DRN_0           
                 RCH =    74469083.7142                   RCH =     1154972.9985     RCH_0           

            TOTAL IN =   369560696.9856              TOTAL IN =     3383746.0743

          OUT:                                     OUT:
          ----                                     ----
              STO-SS =           0.0000                STO-SS =           0.0000     STORAGE         
              STO-SY =    69809876.5530                STO-SY =       84374.2535     STORAGE         
                 WEL =     3476136.9020                   WEL =       31545.8365     WEL_0           
                 DRN =   296274683.5306                   DRN =     3267825.9843     DRN_0           
                 RCH =           0.0000                   RCH =           0.0000     RCH_0           

           TOTAL OUT =   369560696.9856             TOTAL OUT =     3383746.0743

            IN - OUT =       1.6689E-05              IN - OUT =      -3.3062E-07

 PERCENT DISCREPANCY =           0.00     PERCENT DISCREPANCY =          -0.00




         TIME SUMMARY AT END OF TIME STEP    1 IN STRESS PERIOD  105
                          TIME STEP LENGTH =    1.00000    
                        STRESS PERIOD TIME =    1.00000    
                     TOTAL SIMULATION TIME =    105.000    

end timestep


start timestep kper="106" kstp="1" mode="normal"


 OUTPUT CONTROL FOR STRESS PERIOD 106 IS REPEATED USING SETTINGS FROM A PREVIOUS STRESS PERIOD.


 STRESS PERIOD 106 IS TRANSIENT


 REUSING WELS FROM LAST STRESS PERIOD

 REUSING DRNS FROM LAST STRESS PERIOD

 REUSING RCHS FROM LAST STRESS PERIOD


  VOLUME BUDGET FOR ENTIRE MODEL AT END OF TIME STEP    1, STRESS PERIOD 106
  ---------------------------------------------------------------------------------------------------

     CUMULATIVE VOLUME      L**3       RATES FOR THIS TIME STEP      L**3/T          PACKAGE NAME    
     ------------------                 ------------------------                     ----------------

           IN:                                      IN:
           ---                                      ---
              STO-SS =           0.0000                STO-SS =           0.0000     STORAGE         
              STO-SY =   297327651.3613                STO-SY =     2236038.0899     STORAGE         
                 WEL =           0.0000                   WEL =           0.0000     WEL_0           
                 DRN =           0.0000                   DRN =           0.0000     DRN_0           
                 RCH =    75638889.0303                   RCH =     1169805.3161     RCH_0           

            TOTAL IN =   372966540.3916              TOTAL IN =     3405843.4060

          OUT:                                     OUT:
          ----                                     ----
              STO-SS =           0.0000                STO-SS =           0.0000     STORAGE         
              STO-SY =    69886018.8125                STO-SY =       76142.2596     STORAGE         
                 WEL =     3508639.8940                   WEL =       32502.9920     WEL_0           
                 DRN =   299571881.6850                   DRN =     3297198.1544     DRN_0           
                 RCH =           0.0000                   RCH =           0.0000     RCH_0           

           TOTAL OUT =   372966540.3916             TOTAL OUT =     3405843.4060

            IN - OUT =       2.0504E-05              IN - OUT =       3.8133E-06

 PERCENT DISCREPANCY =           0.00     PERCENT DISCREPANCY =           0.00




         TIME SUMMARY AT END OF TIME STEP    1 IN STRESS PERIOD  106
                          TIME STEP LENGTH =    1.00000    
                        STRESS PERIOD TIME =    1.00000    
                     TOTAL SIMULATION TIME =    106.000    

end timestep


start timestep kper="107" kstp="1" mode="normal"


 OUTPUT CONTROL FOR STRESS PERIOD 107 IS REPEATED USING SETTINGS FROM A PREVIOUS STRESS PERIOD.


 STRESS PERIOD 107 IS TRANSIENT


 REUSING WELS FROM LAST STRESS PERIOD

 REUSING DRNS FROM LAST STRESS PERIOD

 REUSING RCHS FROM LAST STRESS PERIOD


  VOLUME BUDGET FOR ENTIRE MODEL AT END OF TIME STEP    1, STRESS PERIOD 107
  ---------------------------------------------------------------------------------------------------

     CUMULATIVE VOLUME      L**3       RATES FOR THIS TIME STEP      L**3/T          PACKAGE NAME    
     ------------------                 ------------------------                     ----------------

           IN:                                      IN:
           ---                                      ---
              STO-SS =           0.0000                STO-SS =           0.0000     STORAGE         
              STO-SY =   299539546.8046                STO-SY =     2211895.4433     STORAGE         
                 WEL =           0.0000                   WEL =           0.0000     WEL_0           
                 DRN =           0.0000                   DRN =           0.0000     DRN_0           
                 RCH =    76806570.9033                   RCH =     1167681.8730     RCH_0           

            TOTAL IN =   376346117.7079              TOTAL IN =     3379577.3163

          OUT:                                     OUT:
          ----                                     ----
              STO-SS =           0.0000                STO-SS =           0.0000     STORAGE         
              STO-SY =    69970202.4748                STO-SY =       84183.6623     STORAGE         
                 WEL =     3540029.0294                   WEL =       31389.1354     WEL_0           
                 DRN =   302835886.2037                   DRN =     3264004.5187     DRN_0           
                 RCH =           0.0000                   RCH =           0.0000     RCH_0           

           TOTAL OUT =   376346117.7079             TOTAL OUT =     3379577.3163

            IN - OUT =       2.1338E-05              IN - OUT =       7.6788E-07

 PERCENT DISCREPANCY =           0.00     PERCENT DISCREPANCY =           0.00




         TIME SUMMARY AT END OF TIME STEP    1 IN STRESS PERIOD  107
                          TIME STEP LENGTH =    1.00000    
                        STRESS PERIOD TIME =    1.00000    
                     TOTAL SIMULATION TIME =    107.000    

end timestep


start timestep kper="108" kstp="1" mode="normal"


 OUTPUT CONTROL FOR STRESS PERIOD 108 IS REPEATED USING SETTINGS FROM A PREVIOUS STRESS PERIOD.


 STRESS PERIOD 108 IS TRANSIENT


 REUSING WELS FROM LAST STRESS PERIOD

 REUSING DRNS FROM LAST STRESS PERIOD

 REUSING RCHS FROM LAST STRESS PERIOD


  VOLUME BUDGET FOR ENTIRE MODEL AT END OF TIME STEP    1, STRESS PERIOD 108
  ---------------------------------------------------------------------------------------------------

     CUMULATIVE VOLUME      L**3       RATES FOR THIS TIME STEP      L**3/T          PACKAGE NAME    
     ------------------                 ------------------------                     ----------------

           IN:                                      IN:
           ---                                      ---
              STO-SS =           0.0000                STO-SS =           0.0000     STORAGE         
              STO-SY =   301775176.7239                STO-SY =     2235629.9193     STORAGE         
                 WEL =           0.0000                   WEL =           0.0000     WEL_0           
                 DRN =           0.0000                   DRN =           0.0000     DRN_0           
                 RCH =    77980687.9909                   RCH =     1174117.0877     RCH_0           

            TOTAL IN =   379755864.7148              TOTAL IN =     3409747.0069

          OUT:                                     OUT:
          ----                                     ----
              STO-SS =           0.0000                STO-SS =           0.0000     STORAGE         
              STO-SY =    70047301.9241                STO-SY =       77099.4493     STORAGE         
                 WEL =     3583175.1247                   WEL =       43146.0953     WEL_0           
                 DRN =   306125387.6660                   DRN =     3289501.4623     DRN_0           
                 RCH =           0.0000                   RCH =           0.0000     RCH_0           

           TOTAL OUT =   379755864.7148             TOTAL OUT =     3409747.0069

            IN - OUT =       2.3603E-05              IN - OUT =       2.3027E-06

 PERCENT DISCREPANCY =           0.00     PERCENT DISCREPANCY =           0.00




         TIME SUMMARY AT END OF TIME STEP    1 IN STRESS PERIOD  108
                          TIME STEP LENGTH =    1.00000    
                        STRESS PERIOD TIME =    1.00000    
                     TOTAL SIMULATION TIME =    108.000    

end timestep


start timestep kper="109" kstp="1" mode="normal"


 OUTPUT CONTROL FOR STRESS PERIOD 109 IS REPEATED USING SETTINGS FROM A PREVIOUS STRESS PERIOD.


 STRESS PERIOD 109 IS TRANSIENT


 REUSING WELS FROM LAST STRESS PERIOD

 REUSING DRNS FROM LAST STRESS PERIOD

 REUSING RCHS FROM LAST STRESS PERIOD


  VOLUME BUDGET FOR ENTIRE MODEL AT END OF TIME STEP    1, STRESS PERIOD 109
  ---------------------------------------------------------------------------------------------------

     CUMULATIVE VOLUME      L**3       RATES FOR THIS TIME STEP      L**3/T          PACKAGE NAME    
     ------------------                 ------------------------                     ----------------

           IN:                                      IN:
           ---                                      ---
              STO-SS =           0.0000                STO-SS =           0.0000     STORAGE         
              STO-SY =   303982956.1175                STO-SY =     2207779.3936     STORAGE         
                 WEL =           0.0000                   WEL =           0.0000     WEL_0           
                 DRN =           0.0000                   DRN =           0.0000     DRN_0           
                 RCH =    79130789.3863                   RCH =     1150101.3954     RCH_0           

            TOTAL IN =   383113745.5038              TOTAL IN =     3357880.7890

          OUT:                                     OUT:
          ----                                     ----
              STO-SS =           0.0000                STO-SS =           0.0000     STORAGE         
              STO-SY =    70122304.3401                STO-SY =       75002.4160     STORAGE         
                 WEL =     3616343.5888                   WEL =       33168.4641     WEL_0           
                 DRN =   309375097.5749                   DRN =     3249709.9089     DRN_0           
                 RCH =           0.0000                   RCH =           0.0000     RCH_0           

           TOTAL OUT =   383113745.5038             TOTAL OUT =     3357880.7890

            IN - OUT =       2.3961E-05              IN - OUT =       3.8277E-07

 PERCENT DISCREPANCY =           0.00     PERCENT DISCREPANCY =           0.00




         TIME SUMMARY AT END OF TIME STEP    1 IN STRESS PERIOD  109
                          TIME STEP LENGTH =    1.00000    
                        STRESS PERIOD TIME =    1.00000    
                     TOTAL SIMULATION TIME =    109.000    

end timestep


start timestep kper="110" kstp="1" mode="normal"


 OUTPUT CONTROL FOR STRESS PERIOD 110 IS REPEATED USING SETTINGS FROM A PREVIOUS STRESS PERIOD.


 STRESS PERIOD 110 IS TRANSIENT


 REUSING WELS FROM LAST STRESS PERIOD

 REUSING DRNS FROM LAST STRESS PERIOD

 REUSING RCHS FROM LAST STRESS PERIOD


  VOLUME BUDGET FOR ENTIRE MODEL AT END OF TIME STEP    1, STRESS PERIOD 110
  ---------------------------------------------------------------------------------------------------

     CUMULATIVE VOLUME      L**3       RATES FOR THIS TIME STEP      L**3/T          PACKAGE NAME    
     ------------------                 ------------------------                     ----------------

           IN:                                      IN:
           ---                                      ---
              STO-SS =           0.0000                STO-SS =           0.0000     STORAGE         
              STO-SY =   306241310.0840                STO-SY =     2258353.9664     STORAGE         
                 WEL =           0.0000                   WEL =           0.0000     WEL_0           
                 DRN =           0.0000                   DRN =           0.0000     DRN_0           
                 RCH =    80274016.6526                   RCH =     1143227.2662     RCH_0           

            TOTAL IN =   386515326.7365              TOTAL IN =     3401581.2327

          OUT:                                     OUT:
          ----                                     ----
              STO-SS =           0.0000                STO-SS =           0.0000     STORAGE         
              STO-SY =    70193542.4909                STO-SY =       71238.1508     STORAGE         
                 WEL =     3680464.8139                   WEL =       64121.2250     WEL_0           
                 DRN =   312641319.4318                   DRN =     3266221.8569     DRN_0           
                 RCH =           0.0000                   RCH =           0.0000     RCH_0           

           TOTAL OUT =   386515326.7365             TOTAL OUT =     3401581.2327

            IN - OUT =       2.5988E-05              IN - OUT =       2.0242E-06

 PERCENT DISCREPANCY =           0.00     PERCENT DISCREPANCY =           0.00




         TIME SUMMARY AT END OF TIME STEP    1 IN STRESS PERIOD  110
                          TIME STEP LENGTH =    1.00000    
                        STRESS PERIOD TIME =    1.00000    
                     TOTAL SIMULATION TIME =    110.000    

end timestep


start timestep kper="111" kstp="1" mode="normal"


 OUTPUT CONTROL FOR STRESS PERIOD 111 IS REPEATED USING SETTINGS FROM A PREVIOUS STRESS PERIOD.


 STRESS PERIOD 111 IS TRANSIENT


 REUSING WELS FROM LAST STRESS PERIOD

 REUSING DRNS FROM LAST STRESS PERIOD

 REUSING RCHS FROM LAST STRESS PERIOD


  VOLUME BUDGET FOR ENTIRE MODEL AT END OF TIME STEP    1, STRESS PERIOD 111
  ---------------------------------------------------------------------------------------------------

     CUMULATIVE VOLUME      L**3       RATES FOR THIS TIME STEP      L**3/T          PACKAGE NAME    
     ------------------                 ------------------------                     ----------------

           IN:                                      IN:
           ---                                      ---
              STO-SS =           0.0000                STO-SS =           0.0000     STORAGE         
              STO-SY =   308470379.1390                STO-SY =     2229069.0550     STORAGE         
                 WEL =           0.0000                   WEL =           0.0000     WEL_0           
                 DRN =           0.0000                   DRN =           0.0000     DRN_0           
                 RCH =    81374953.9290                   RCH =     1100937.2764     RCH_0           

            TOTAL IN =   389845333.0680              TOTAL IN =     3330006.3315

          OUT:                                     OUT:
          ----                                     ----
              STO-SS =           0.0000                STO-SS =           0.0000     STORAGE         
              STO-SY =    70266772.8193                STO-SY =       73230.3284     STORAGE         
                 WEL =     3720329.0165                   WEL =       39864.2027     WEL_0           
                 DRN =   315858231.2322                   DRN =     3216911.8004     DRN_0           
                 RCH =           0.0000                   RCH =           0.0000     RCH_0           

           TOTAL OUT =   389845333.0680             TOTAL OUT =     3330006.3315

            IN - OUT =       2.6882E-05              IN - OUT =       8.3214E-07

 PERCENT DISCREPANCY =           0.00     PERCENT DISCREPANCY =           0.00




         TIME SUMMARY AT END OF TIME STEP    1 IN STRESS PERIOD  111
                          TIME STEP LENGTH =    1.00000    
                        STRESS PERIOD TIME =    1.00000    
                     TOTAL SIMULATION TIME =    111.000    

end timestep


start timestep kper="112" kstp="1" mode="normal"


 OUTPUT CONTROL FOR STRESS PERIOD 112 IS REPEATED USING SETTINGS FROM A PREVIOUS STRESS PERIOD.


 STRESS PERIOD 112 IS TRANSIENT


 REUSING WELS FROM LAST STRESS PERIOD

 REUSING DRNS FROM LAST STRESS PERIOD

 REUSING RCHS FROM LAST STRESS PERIOD


  VOLUME BUDGET FOR ENTIRE MODEL AT END OF TIME STEP    1, STRESS PERIOD 112
  ---------------------------------------------------------------------------------------------------

     CUMULATIVE VOLUME      L**3       RATES FOR THIS TIME STEP      L**3/T          PACKAGE NAME    
     ------------------                 ------------------------                     ----------------

           IN:                                      IN:
           ---                                      ---
              STO-SS =           0.0000                STO-SS =           0.0000     STORAGE         
              STO-SY =   310712770.0088                STO-SY =     2242390.8698     STORAGE         
                 WEL =           0.0000                   WEL =           0.0000     WEL_0           
                 DRN =           0.0000                   DRN =           0.0000     DRN_0           
                 RCH =    82509957.5630                   RCH =     1135003.6340     RCH_0           

            TOTAL IN =   393222727.5718              TOTAL IN =     3377394.5038

          OUT:                                     OUT:
          ----                                     ----
              STO-SS =           0.0000                STO-SS =           0.0000     STORAGE         
              STO-SY =    70335132.3736                STO-SY =       68359.5543     STORAGE         
                 WEL =     3781396.5241                   WEL =       61067.5075     WEL_0           
                 DRN =   319106198.6741                   DRN =     3247967.4420     DRN_0           
                 RCH =           0.0000                   RCH =           0.0000     RCH_0           

           TOTAL OUT =   393222727.5717             TOTAL OUT =     3377394.5038

            IN - OUT =       2.5034E-05              IN - OUT =      -1.8496E-06

 PERCENT DISCREPANCY =           0.00     PERCENT DISCREPANCY =          -0.00




         TIME SUMMARY AT END OF TIME STEP    1 IN STRESS PERIOD  112
                          TIME STEP LENGTH =    1.00000    
                        STRESS PERIOD TIME =    1.00000    
                     TOTAL SIMULATION TIME =    112.000    

end timestep


start timestep kper="113" kstp="1" mode="normal"


 OUTPUT CONTROL FOR STRESS PERIOD 113 IS REPEATED USING SETTINGS FROM A PREVIOUS STRESS PERIOD.


 STRESS PERIOD 113 IS TRANSIENT


 REUSING WELS FROM LAST STRESS PERIOD

 REUSING DRNS FROM LAST STRESS PERIOD

 REUSING RCHS FROM LAST STRESS PERIOD


  VOLUME BUDGET FOR ENTIRE MODEL AT END OF TIME STEP    1, STRESS PERIOD 113
  ---------------------------------------------------------------------------------------------------

     CUMULATIVE VOLUME      L**3       RATES FOR THIS TIME STEP      L**3/T          PACKAGE NAME    
     ------------------                 ------------------------                     ----------------

           IN:                                      IN:
           ---                                      ---
              STO-SS =           0.0000                STO-SS =           0.0000     STORAGE         
              STO-SY =   312942828.6579                STO-SY =     2230058.6491     STORAGE         
                 WEL =           0.0000                   WEL =           0.0000     WEL_0           
                 DRN =           0.0000                   DRN =           0.0000     DRN_0           
                 RCH =    83595556.2843                   RCH =     1085598.7214     RCH_0           

            TOTAL IN =   396538384.9422              TOTAL IN =     3315657.3705

          OUT:                                     OUT:
          ----                                     ----
              STO-SS =           0.0000                STO-SS =           0.0000     STORAGE         
              STO-SY =    70404271.0384                STO-SY =       69138.6648     STORAGE         
                 WEL =     3822222.3732                   WEL =       40825.8491     WEL_0           
                 DRN =   322311891.5306                   DRN =     3205692.8565     DRN_0           
                 RCH =           0.0000                   RCH =           0.0000     RCH_0           

           TOTAL OUT =   396538384.9422             TOTAL OUT =     3315657.3705

            IN - OUT =       2.3723E-05              IN - OUT =      -1.2657E-06

 PERCENT DISCREPANCY =           0.00     PERCENT DISCREPANCY =          -0.00




         TIME SUMMARY AT END OF TIME STEP    1 IN STRESS PERIOD  113
                          TIME STEP LENGTH =    1.00000    
                        STRESS PERIOD TIME =    1.00000    
                     TOTAL SIMULATION TIME =    113.000    

end timestep


start timestep kper="114" kstp="1" mode="normal"


 OUTPUT CONTROL FOR STRESS PERIOD 114 IS REPEATED USING SETTINGS FROM A PREVIOUS STRESS PERIOD.


 STRESS PERIOD 114 IS TRANSIENT


 REUSING WELS FROM LAST STRESS PERIOD

 REUSING DRNS FROM LAST STRESS PERIOD

 REUSING RCHS FROM LAST STRESS PERIOD


  VOLUME BUDGET FOR ENTIRE MODEL AT END OF TIME STEP    1, STRESS PERIOD 114
  ---------------------------------------------------------------------------------------------------

     CUMULATIVE VOLUME      L**3       RATES FOR THIS TIME STEP      L**3/T          PACKAGE NAME    
     ------------------                 ------------------------                     ----------------

           IN:                                      IN:
           ---                                      ---
              STO-SS =           0.0000                STO-SS =           0.0000     STORAGE         
              STO-SY =   315128072.0483                STO-SY =     2185243.3904     STORAGE         
                 WEL =           0.0000                   WEL =           0.0000     WEL_0           
                 DRN =           0.0000                   DRN =           0.0000     DRN_0           
                 RCH =    84792253.6279                   RCH =     1196697.3436     RCH_0           

            TOTAL IN =   399920325.6762              TOTAL IN =     3381940.7339

          OUT:                                     OUT:
          ----                                     ----
              STO-SS =           0.0000                STO-SS =           0.0000     STORAGE         
              STO-SY =    70474670.9604                STO-SY =       70399.9220     STORAGE         
                 WEL =     3859983.1404                   WEL =       37760.7672     WEL_0           
                 DRN =   325585671.5753                   DRN =     3273780.0447     DRN_0           
                 RCH =           0.0000                   RCH =           0.0000     RCH_0           

           TOTAL OUT =   399920325.6761             TOTAL OUT =     3381940.7339

            IN - OUT =       2.5809E-05              IN - OUT =       2.1202E-06

 PERCENT DISCREPANCY =           0.00     PERCENT DISCREPANCY =           0.00




         TIME SUMMARY AT END OF TIME STEP    1 IN STRESS PERIOD  114
                          TIME STEP LENGTH =    1.00000    
                        STRESS PERIOD TIME =    1.00000    
                     TOTAL SIMULATION TIME =    114.000    

end timestep


start timestep kper="115" kstp="1" mode="normal"


 OUTPUT CONTROL FOR STRESS PERIOD 115 IS REPEATED USING SETTINGS FROM A PREVIOUS STRESS PERIOD.


 STRESS PERIOD 115 IS TRANSIENT


 REUSING WELS FROM LAST STRESS PERIOD

 REUSING DRNS FROM LAST STRESS PERIOD

 REUSING RCHS FROM LAST STRESS PERIOD


  VOLUME BUDGET FOR ENTIRE MODEL AT END OF TIME STEP    1, STRESS PERIOD 115
  ---------------------------------------------------------------------------------------------------

     CUMULATIVE VOLUME      L**3       RATES FOR THIS TIME STEP      L**3/T          PACKAGE NAME    
     ------------------                 ------------------------                     ----------------

           IN:                                      IN:
           ---                                      ---
              STO-SS =           0.0000                STO-SS =           0.0000     STORAGE         
              STO-SY =   317335548.0988                STO-SY =     2207476.0505     STORAGE         
                 WEL =           0.0000                   WEL =           0.0000     WEL_0           
                 DRN =           0.0000                   DRN =           0.0000     DRN_0           
                 RCH =    85928761.7410                   RCH =     1136508.1131     RCH_0           

            TOTAL IN =   403264309.8398              TOTAL IN =     3343984.1636

          OUT:                                     OUT:
          ----                                     ----
              STO-SS =           0.0000                STO-SS =           0.0000     STORAGE         
              STO-SY =    70542351.1769                STO-SY =       67680.2164     STORAGE         
                 WEL =     3916281.0497                   WEL =       56297.9093     WEL_0           
                 DRN =   328805677.6132                   DRN =     3220006.0379     DRN_0           
                 RCH =           0.0000                   RCH =           0.0000     RCH_0           

           TOTAL OUT =   403264309.8397             TOTAL OUT =     3343984.1636

            IN - OUT =       2.9027E-05              IN - OUT =       3.1698E-06

 PERCENT DISCREPANCY =           0.00     PERCENT DISCREPANCY =           0.00




         TIME SUMMARY AT END OF TIME STEP    1 IN STRESS PERIOD  115
                          TIME STEP LENGTH =    1.00000    
                        STRESS PERIOD TIME =    1.00000    
                     TOTAL SIMULATION TIME =    115.000    

end timestep


start timestep kper="116" kstp="1" mode="normal"


 OUTPUT CONTROL FOR STRESS PERIOD 116 IS REPEATED USING SETTINGS FROM A PREVIOUS STRESS PERIOD.


 STRESS PERIOD 116 IS TRANSIENT


 REUSING WELS FROM LAST STRESS PERIOD

 REUSING DRNS FROM LAST STRESS PERIOD

 REUSING RCHS FROM LAST STRESS PERIOD


  VOLUME BUDGET FOR ENTIRE MODEL AT END OF TIME STEP    1, STRESS PERIOD 116
  ---------------------------------------------------------------------------------------------------

     CUMULATIVE VOLUME      L**3       RATES FOR THIS TIME STEP      L**3/T          PACKAGE NAME    
     ------------------                 ------------------------                     ----------------

           IN:                                      IN:
           ---                                      ---
              STO-SS =           0.0000                STO-SS =           0.0000     STORAGE         
              STO-SY =   319508334.2899                STO-SY =     2172786.1911     STORAGE         
                 WEL =           0.0000                   WEL =           0.0000     WEL_0           
                 DRN =           0.0000                   DRN =           0.0000     DRN_0           
                 RCH =    87119787.1316                   RCH =     1191025.3906     RCH_0           

            TOTAL IN =   406628121.4215              TOTAL IN =     3363811.5817

          OUT:                                     OUT:
          ----                                     ----
              STO-SS =           0.0000                STO-SS =           0.0000     STORAGE         
              STO-SY =    70605150.2063                STO-SY =       62799.0294     STORAGE         
                 WEL =     3951531.0456                   WEL =       35249.9959     WEL_0           
                 DRN =   332071440.1696                   DRN =     3265762.5564     DRN_0           
                 RCH =           0.0000                   RCH =           0.0000     RCH_0           

           TOTAL OUT =   406628121.4214             TOTAL OUT =     3363811.5817

            IN - OUT =       2.9445E-05              IN - OUT =       4.3865E-07

 PERCENT DISCREPANCY =           0.00     PERCENT DISCREPANCY =           0.00




         TIME SUMMARY AT END OF TIME STEP    1 IN STRESS PERIOD  116
                          TIME STEP LENGTH =    1.00000    
                        STRESS PERIOD TIME =    1.00000    
                     TOTAL SIMULATION TIME =    116.000    

end timestep


start timestep kper="117" kstp="1" mode="normal"


 OUTPUT CONTROL FOR STRESS PERIOD 117 IS REPEATED USING SETTINGS FROM A PREVIOUS STRESS PERIOD.


 STRESS PERIOD 117 IS TRANSIENT


 REUSING WELS FROM LAST STRESS PERIOD

 REUSING DRNS FROM LAST STRESS PERIOD

 REUSING RCHS FROM LAST STRESS PERIOD


  VOLUME BUDGET FOR ENTIRE MODEL AT END OF TIME STEP    1, STRESS PERIOD 117
  ---------------------------------------------------------------------------------------------------

     CUMULATIVE VOLUME      L**3       RATES FOR THIS TIME STEP      L**3/T          PACKAGE NAME    
     ------------------                 ------------------------                     ----------------

           IN:                                      IN:
           ---                                      ---
              STO-SS =           0.0000                STO-SS =           0.0000     STORAGE         
              STO-SY =   321701577.1545                STO-SY =     2193242.8646     STORAGE         
                 WEL =           0.0000                   WEL =           0.0000     WEL_0           
                 DRN =           0.0000                   DRN =           0.0000     DRN_0           
                 RCH =    88264094.2660                   RCH =     1144307.1345     RCH_0           

            TOTAL IN =   409965671.4205              TOTAL IN =     3337549.9990

          OUT:                                     OUT:
          ----                                     ----
              STO-SS =           0.0000                STO-SS =           0.0000     STORAGE         
              STO-SY =    70670712.4805                STO-SY =       65562.2742     STORAGE         
                 WEL =     4009607.6330                   WEL =       58076.5875     WEL_0           
                 DRN =   335285351.3069                   DRN =     3213911.1374     DRN_0           
                 RCH =           0.0000                   RCH =           0.0000     RCH_0           

           TOTAL OUT =   409965671.4205             TOTAL OUT =     3337549.9990

            IN - OUT =       3.0696E-05              IN - OUT =       1.2722E-06

 PERCENT DISCREPANCY =           0.00     PERCENT DISCREPANCY =           0.00




         TIME SUMMARY AT END OF TIME STEP    1 IN STRESS PERIOD  117
                          TIME STEP LENGTH =    1.00000    
                        STRESS PERIOD TIME =    1.00000    
                     TOTAL SIMULATION TIME =    117.000    

end timestep


start timestep kper="118" kstp="1" mode="normal"


 OUTPUT CONTROL FOR STRESS PERIOD 118 IS REPEATED USING SETTINGS FROM A PREVIOUS STRESS PERIOD.


 STRESS PERIOD 118 IS TRANSIENT


 REUSING WELS FROM LAST STRESS PERIOD

 REUSING DRNS FROM LAST STRESS PERIOD

 REUSING RCHS FROM LAST STRESS PERIOD


  VOLUME BUDGET FOR ENTIRE MODEL AT END OF TIME STEP    1, STRESS PERIOD 118
  ---------------------------------------------------------------------------------------------------

     CUMULATIVE VOLUME      L**3       RATES FOR THIS TIME STEP      L**3/T          PACKAGE NAME    
     ------------------                 ------------------------                     ----------------

           IN:                                      IN:
           ---                                      ---
              STO-SS =           0.0000                STO-SS =           0.0000     STORAGE         
              STO-SY =   323913446.7836                STO-SY =     2211869.6291     STORAGE         
                 WEL =           0.0000                   WEL =           0.0000     WEL_0           
                 DRN =           0.0000                   DRN =           0.0000     DRN_0           
                 RCH =    89395952.7523                   RCH =     1131858.4863     RCH_0           

            TOTAL IN =   413309399.5360              TOTAL IN =     3343728.1155

          OUT:                                     OUT:
          ----                                     ----
              STO-SS =           0.0000                STO-SS =           0.0000     STORAGE         
              STO-SY =    70731371.5040                STO-SY =       60659.0235     STORAGE         
                 WEL =     4061184.2771                   WEL =       51576.6440     WEL_0           
                 DRN =   338516843.7549                   DRN =     3231492.4480     DRN_0           
                 RCH =           0.0000                   RCH =           0.0000     RCH_0           

           TOTAL OUT =   413309399.5359             TOTAL OUT =     3343728.1155

            IN - OUT =       2.9743E-05              IN - OUT =      -9.3877E-07

 PERCENT DISCREPANCY =           0.00     PERCENT DISCREPANCY =          -0.00




         TIME SUMMARY AT END OF TIME STEP    1 IN STRESS PERIOD  118
                          TIME STEP LENGTH =    1.00000    
                        STRESS PERIOD TIME =    1.00000    
                     TOTAL SIMULATION TIME =    118.000    

end timestep


start timestep kper="119" kstp="1" mode="normal"


 OUTPUT CONTROL FOR STRESS PERIOD 119 IS REPEATED USING SETTINGS FROM A PREVIOUS STRESS PERIOD.


 STRESS PERIOD 119 IS TRANSIENT


 REUSING WELS FROM LAST STRESS PERIOD

 REUSING DRNS FROM LAST STRESS PERIOD

 REUSING RCHS FROM LAST STRESS PERIOD


  VOLUME BUDGET FOR ENTIRE MODEL AT END OF TIME STEP    1, STRESS PERIOD 119
  ---------------------------------------------------------------------------------------------------

     CUMULATIVE VOLUME      L**3       RATES FOR THIS TIME STEP      L**3/T          PACKAGE NAME    
     ------------------                 ------------------------                     ----------------

           IN:                                      IN:
           ---                                      ---
              STO-SS =           0.0000                STO-SS =           0.0000     STORAGE         
              STO-SY =   326087389.3955                STO-SY =     2173942.6119     STORAGE         
                 WEL =           0.0000                   WEL =           0.0000     WEL_0           
                 DRN =           0.0000                   DRN =           0.0000     DRN_0           
                 RCH =    90524389.6147                   RCH =     1128436.8623     RCH_0           

            TOTAL IN =   416611779.0102              TOTAL IN =     3302379.4743

          OUT:                                     OUT:
          ----                                     ----
              STO-SS =           0.0000                STO-SS =           0.0000     STORAGE         
              STO-SY =    70792911.6752                STO-SY =       61540.1712     STORAGE         
                 WEL =     4103041.6957                   WEL =       41857.4187     WEL_0           
                 DRN =   341715825.6393                   DRN =     3198981.8844     DRN_0           
                 RCH =           0.0000                   RCH =           0.0000     RCH_0           

           TOTAL OUT =   416611779.0102             TOTAL OUT =     3302379.4743

            IN - OUT =       3.0816E-05              IN - OUT =       1.0803E-06

 PERCENT DISCREPANCY =           0.00     PERCENT DISCREPANCY =           0.00




         TIME SUMMARY AT END OF TIME STEP    1 IN STRESS PERIOD  119
                          TIME STEP LENGTH =    1.00000    
                        STRESS PERIOD TIME =    1.00000    
                     TOTAL SIMULATION TIME =    119.000    

end timestep


start timestep kper="120" kstp="1" mode="normal"


 OUTPUT CONTROL FOR STRESS PERIOD 120 IS REPEATED USING SETTINGS FROM A PREVIOUS STRESS PERIOD.


 STRESS PERIOD 120 IS TRANSIENT


 REUSING WELS FROM LAST STRESS PERIOD

 REUSING DRNS FROM LAST STRESS PERIOD

 REUSING RCHS FROM LAST STRESS PERIOD


  VOLUME BUDGET FOR ENTIRE MODEL AT END OF TIME STEP    1, STRESS PERIOD 120
  ---------------------------------------------------------------------------------------------------

     CUMULATIVE VOLUME      L**3       RATES FOR THIS TIME STEP      L**3/T          PACKAGE NAME    
     ------------------                 ------------------------                     ----------------

           IN:                                      IN:
           ---                                      ---
              STO-SS =           0.0000                STO-SS =           0.0000     STORAGE         
              STO-SY =   328293896.1889                STO-SY =     2206506.7934     STORAGE         
                 WEL =           0.0000                   WEL =           0.0000     WEL_0           
                 DRN =           0.0000                   DRN =           0.0000     DRN_0           
                 RCH =    91657042.8381                   RCH =     1132653.2234     RCH_0           

            TOTAL IN =   419950939.0271              TOTAL IN =     3339160.0168

          OUT:                                     OUT:
          ----                                     ----
              STO-SS =           0.0000                STO-SS =           0.0000     STORAGE         
              STO-SY =    70852752.6261                STO-SY =       59840.9509     STORAGE         
                 WEL =     4162215.8734                   WEL =       59174.1777     WEL_0           
                 DRN =   344935970.5276                   DRN =     3220144.8883     DRN_0           
                 RCH =           0.0000                   RCH =           0.0000     RCH_0           

           TOTAL OUT =   419950939.0270             TOTAL OUT =     3339160.0168

            IN - OUT =       3.0696E-05              IN - OUT =      -1.4389E-07

 PERCENT DISCREPANCY =           0.00     PERCENT DISCREPANCY =          -0.00




         TIME SUMMARY AT END OF TIME STEP    1 IN STRESS PERIOD  120
                          TIME STEP LENGTH =    1.00000    
                        STRESS PERIOD TIME =    1.00000    
                     TOTAL SIMULATION TIME =    120.000    

end timestep


start timestep kper="121" kstp="1" mode="normal"


 OUTPUT CONTROL FOR STRESS PERIOD 121 IS REPEATED USING SETTINGS FROM A PREVIOUS STRESS PERIOD.


 STRESS PERIOD 121 IS TRANSIENT


 REUSING WELS FROM LAST STRESS PERIOD

 REUSING DRNS FROM LAST STRESS PERIOD

 REUSING RCHS FROM LAST STRESS PERIOD


  VOLUME BUDGET FOR ENTIRE MODEL AT END OF TIME STEP    1, STRESS PERIOD 121
  ---------------------------------------------------------------------------------------------------

     CUMULATIVE VOLUME      L**3       RATES FOR THIS TIME STEP      L**3/T          PACKAGE NAME    
     ------------------                 ------------------------                     ----------------

           IN:                                      IN:
           ---                                      ---
              STO-SS =           0.0000                STO-SS =           0.0000     STORAGE         
              STO-SY =   330479223.4899                STO-SY =     2185327.3010     STORAGE         
                 WEL =           0.0000                   WEL =           0.0000     WEL_0           
                 DRN =           0.0000                   DRN =           0.0000     DRN_0           
                 RCH =    92763240.4228                   RCH =     1106197.5847     RCH_0           

            TOTAL IN =   423242463.9127              TOTAL IN =     3291524.8857

          OUT:                                     OUT:
          ----                                     ----
              STO-SS =           0.0000                STO-SS =           0.0000     STORAGE         
              STO-SY =    70912454.7645                STO-SY =       59702.1384     STORAGE         
                 WEL =     4217985.3233                   WEL =       55769.4499     WEL_0           
                 DRN =   348112023.8249                   DRN =     3176053.2974     DRN_0           
                 RCH =           0.0000                   RCH =           0.0000     RCH_0           

           TOTAL OUT =   423242463.9127             TOTAL OUT =     3291524.8857

            IN - OUT =       2.8014E-05              IN - OUT =      -2.6552E-06

 PERCENT DISCREPANCY =           0.00     PERCENT DISCREPANCY =          -0.00




         TIME SUMMARY AT END OF TIME STEP    1 IN STRESS PERIOD  121
                          TIME STEP LENGTH =    1.00000    
                        STRESS PERIOD TIME =    1.00000    
                     TOTAL SIMULATION TIME =    121.000    

end timestep


start timestep kper="122" kstp="1" mode="normal"


 OUTPUT CONTROL FOR STRESS PERIOD 122 IS REPEATED USING SETTINGS FROM A PREVIOUS STRESS PERIOD.


 STRESS PERIOD 122 IS TRANSIENT


 REUSING WELS FROM LAST STRESS PERIOD

 REUSING DRNS FROM LAST STRESS PERIOD

 REUSING RCHS FROM LAST STRESS PERIOD


  VOLUME BUDGET FOR ENTIRE MODEL AT END OF TIME STEP    1, STRESS PERIOD 122
  ---------------------------------------------------------------------------------------------------

     CUMULATIVE VOLUME      L**3       RATES FOR THIS TIME STEP      L**3/T          PACKAGE NAME    
     ------------------                 ------------------------                     ----------------

           IN:                                      IN:
           ---                                      ---
              STO-SS =           0.0000                STO-SS =           0.0000     STORAGE         
              STO-SY =   332672414.7228                STO-SY =     2193191.2328     STORAGE         
                 WEL =           0.0000                   WEL =           0.0000     WEL_0           
                 DRN =           0.0000                   DRN =           0.0000     DRN_0           
                 RCH =    93888428.8428                   RCH =     1125188.4200     RCH_0           

            TOTAL IN =   426560843.5656              TOTAL IN =     3318379.6528

          OUT:                                     OUT:
          ----                                     ----
              STO-SS =           0.0000                STO-SS =           0.0000     STORAGE         
              STO-SY =    70968021.1684                STO-SY =       55566.4039     STORAGE         
                 WEL =     4266873.8346                   WEL =       48888.5114     WEL_0           
                 DRN =   351325948.5625                   DRN =     3213924.7375     DRN_0           
                 RCH =           0.0000                   RCH =           0.0000     RCH_0           

           TOTAL OUT =   426560843.5655             TOTAL OUT =     3318379.6528

            IN - OUT =       3.0458E-05              IN - OUT =       2.4764E-06

 PERCENT DISCREPANCY =           0.00     PERCENT DISCREPANCY =           0.00




         TIME SUMMARY AT END OF TIME STEP    1 IN STRESS PERIOD  122
                          TIME STEP LENGTH =    1.00000    
                        STRESS PERIOD TIME =    1.00000    
                     TOTAL SIMULATION TIME =    122.000    

end timestep


start timestep kper="123" kstp="1" mode="normal"


 OUTPUT CONTROL FOR STRESS PERIOD 123 IS REPEATED USING SETTINGS FROM A PREVIOUS STRESS PERIOD.


 STRESS PERIOD 123 IS TRANSIENT


 REUSING WELS FROM LAST STRESS PERIOD

 REUSING DRNS FROM LAST STRESS PERIOD

 REUSING RCHS FROM LAST STRESS PERIOD


  VOLUME BUDGET FOR ENTIRE MODEL AT END OF TIME STEP    1, STRESS PERIOD 123
  ---------------------------------------------------------------------------------------------------

     CUMULATIVE VOLUME      L**3       RATES FOR THIS TIME STEP      L**3/T          PACKAGE NAME    
     ------------------                 ------------------------                     ----------------

           IN:                                      IN:
           ---                                      ---
              STO-SS =           0.0000                STO-SS =           0.0000     STORAGE         
              STO-SY =   334848571.1425                STO-SY =     2176156.4197     STORAGE         
                 WEL =           0.0000                   WEL =           0.0000     WEL_0           
                 DRN =           0.0000                   DRN =           0.0000     DRN_0           
                 RCH =    95012987.3946                   RCH =     1124558.5518     RCH_0           

            TOTAL IN =   429861558.5371              TOTAL IN =     3300714.9716

          OUT:                                     OUT:
          ----                                     ----
              STO-SS =           0.0000                STO-SS =           0.0000     STORAGE         
              STO-SY =    71032561.8062                STO-SY =       64540.6378     STORAGE         
                 WEL =     4325618.1055                   WEL =       58744.2709     WEL_0           
                 DRN =   354503378.6253                   DRN =     3177430.0629     DRN_0           
                 RCH =           0.0000                   RCH =           0.0000     RCH_0           

           TOTAL OUT =   429861558.5371             TOTAL OUT =     3300714.9716

            IN - OUT =       2.9981E-05              IN - OUT =      -5.5740E-07

 PERCENT DISCREPANCY =           0.00     PERCENT DISCREPANCY =          -0.00




         TIME SUMMARY AT END OF TIME STEP    1 IN STRESS PERIOD  123
                          TIME STEP LENGTH =    1.00000    
                        STRESS PERIOD TIME =    1.00000    
                     TOTAL SIMULATION TIME =    123.000    

end timestep


start timestep kper="124" kstp="1" mode="normal"


 OUTPUT CONTROL FOR STRESS PERIOD 124 IS REPEATED USING SETTINGS FROM A PREVIOUS STRESS PERIOD.


 STRESS PERIOD 124 IS TRANSIENT


 REUSING WELS FROM LAST STRESS PERIOD

 REUSING DRNS FROM LAST STRESS PERIOD

 REUSING RCHS FROM LAST STRESS PERIOD


  VOLUME BUDGET FOR ENTIRE MODEL AT END OF TIME STEP    1, STRESS PERIOD 124
  ---------------------------------------------------------------------------------------------------

     CUMULATIVE VOLUME      L**3       RATES FOR THIS TIME STEP      L**3/T          PACKAGE NAME    
     ------------------                 ------------------------                     ----------------

           IN:                                      IN:
           ---                                      ---
              STO-SS =           0.0000                STO-SS =           0.0000     STORAGE         
              STO-SY =   337016682.5716                STO-SY =     2168111.4291     STORAGE         
                 WEL =           0.0000                   WEL =           0.0000     WEL_0           
                 DRN =           0.0000                   DRN =           0.0000     DRN_0           
                 RCH =    96164018.3786                   RCH =     1151030.9840     RCH_0           

            TOTAL IN =   433180700.9502              TOTAL IN =     3319142.4131

          OUT:                                     OUT:
          ----                                     ----
              STO-SS =           0.0000                STO-SS =           0.0000     STORAGE         
              STO-SY =    71087497.0614                STO-SY =       54935.2552     STORAGE         
                 WEL =     4370738.9784                   WEL =       45120.8729     WEL_0           
                 DRN =   357722464.9104                   DRN =     3219086.2851     DRN_0           
                 RCH =           0.0000                   RCH =           0.0000     RCH_0           

           TOTAL OUT =   433180700.9502             TOTAL OUT =     3319142.4131

            IN - OUT =       3.0458E-05              IN - OUT =       5.7276E-07

 PERCENT DISCREPANCY =           0.00     PERCENT DISCREPANCY =           0.00




         TIME SUMMARY AT END OF TIME STEP    1 IN STRESS PERIOD  124
                          TIME STEP LENGTH =    1.00000    
                        STRESS PERIOD TIME =    1.00000    
                     TOTAL SIMULATION TIME =    124.000    

end timestep


start timestep kper="125" kstp="1" mode="normal"


 OUTPUT CONTROL FOR STRESS PERIOD 125 IS REPEATED USING SETTINGS FROM A PREVIOUS STRESS PERIOD.


 STRESS PERIOD 125 IS TRANSIENT


 REUSING WELS FROM LAST STRESS PERIOD

 REUSING DRNS FROM LAST STRESS PERIOD

 REUSING RCHS FROM LAST STRESS PERIOD


  VOLUME BUDGET FOR ENTIRE MODEL AT END OF TIME STEP    1, STRESS PERIOD 125
  ---------------------------------------------------------------------------------------------------

     CUMULATIVE VOLUME      L**3       RATES FOR THIS TIME STEP      L**3/T          PACKAGE NAME    
     ------------------                 ------------------------                     ----------------

           IN:                                      IN:
           ---                                      ---
              STO-SS =           0.0000                STO-SS =           0.0000     STORAGE         
              STO-SY =   339161274.9072                STO-SY =     2144592.3356     STORAGE         
                 WEL =           0.0000                   WEL =           0.0000     WEL_0           
                 DRN =           0.0000                   DRN =           0.0000     DRN_0           
                 RCH =    97316341.1771                   RCH =     1152322.7985     RCH_0           

            TOTAL IN =   436477616.0843              TOTAL IN =     3296915.1341

          OUT:                                     OUT:
          ----                                     ----
              STO-SS =           0.0000                STO-SS =           0.0000     STORAGE         
              STO-SY =    71144829.6572                STO-SY =       57332.5958     STORAGE         
                 WEL =     4426764.9856                   WEL =       56026.0072     WEL_0           
                 DRN =   360906021.4415                   DRN =     3183556.5311     DRN_0           
                 RCH =           0.0000                   RCH =           0.0000     RCH_0           

           TOTAL OUT =   436477616.0843             TOTAL OUT =     3296915.1341

            IN - OUT =       2.8193E-05              IN - OUT =      -2.3474E-06

 PERCENT DISCREPANCY =           0.00     PERCENT DISCREPANCY =          -0.00




         TIME SUMMARY AT END OF TIME STEP    1 IN STRESS PERIOD  125
                          TIME STEP LENGTH =    1.00000    
                        STRESS PERIOD TIME =    1.00000    
                     TOTAL SIMULATION TIME =    125.000    

end timestep


start timestep kper="126" kstp="1" mode="normal"


 OUTPUT CONTROL FOR STRESS PERIOD 126 IS REPEATED USING SETTINGS FROM A PREVIOUS STRESS PERIOD.


 STRESS PERIOD 126 IS TRANSIENT


 REUSING WELS FROM LAST STRESS PERIOD

 REUSING DRNS FROM LAST STRESS PERIOD

 REUSING RCHS FROM LAST STRESS PERIOD


  VOLUME BUDGET FOR ENTIRE MODEL AT END OF TIME STEP    1, STRESS PERIOD 126
  ---------------------------------------------------------------------------------------------------

     CUMULATIVE VOLUME      L**3       RATES FOR THIS TIME STEP      L**3/T          PACKAGE NAME    
     ------------------                 ------------------------                     ----------------

           IN:                                      IN:
           ---                                      ---
              STO-SS =           0.0000                STO-SS =           0.0000     STORAGE         
              STO-SY =   341267472.3301                STO-SY =     2106197.4229     STORAGE         
                 WEL =           0.0000                   WEL =           0.0000     WEL_0           
                 DRN =           0.0000                   DRN =           0.0000     DRN_0           
                 RCH =    98560480.7778                   RCH =     1244139.6007     RCH_0           

            TOTAL IN =   439827953.1079              TOTAL IN =     3350337.0236

          OUT:                                     OUT:
          ----                                     ----
              STO-SS =           0.0000                STO-SS =           0.0000     STORAGE         
              STO-SY =    71202312.9217                STO-SY =       57483.2645     STORAGE         
                 WEL =     4463597.8439                   WEL =       36832.8583     WEL_0           
                 DRN =   364162042.3423                   DRN =     3256020.9009     DRN_0           
                 RCH =           0.0000                   RCH =           0.0000     RCH_0           

           TOTAL OUT =   439827953.1079             TOTAL OUT =     3350337.0236

            IN - OUT =       3.0458E-05              IN - OUT =       2.2962E-06

 PERCENT DISCREPANCY =           0.00     PERCENT DISCREPANCY =           0.00




         TIME SUMMARY AT END OF TIME STEP    1 IN STRESS PERIOD  126
                          TIME STEP LENGTH =    1.00000    
                        STRESS PERIOD TIME =    1.00000    
                     TOTAL SIMULATION TIME =    126.000    

end timestep


start timestep kper="127" kstp="1" mode="normal"


 OUTPUT CONTROL FOR STRESS PERIOD 127 IS REPEATED USING SETTINGS FROM A PREVIOUS STRESS PERIOD.


 STRESS PERIOD 127 IS TRANSIENT


 REUSING WELS FROM LAST STRESS PERIOD

 REUSING DRNS FROM LAST STRESS PERIOD

 REUSING RCHS FROM LAST STRESS PERIOD


  VOLUME BUDGET FOR ENTIRE MODEL AT END OF TIME STEP    1, STRESS PERIOD 127
  ---------------------------------------------------------------------------------------------------

     CUMULATIVE VOLUME      L**3       RATES FOR THIS TIME STEP      L**3/T          PACKAGE NAME    
     ------------------                 ------------------------                     ----------------

           IN:                                      IN:
           ---                                      ---
              STO-SS =           0.0000                STO-SS =           0.0000     STORAGE         
              STO-SY =   343348022.8638                STO-SY =     2080550.5337     STORAGE         
                 WEL =           0.0000                   WEL =           0.0000     WEL_0           
                 DRN =           0.0000                   DRN =           0.0000     DRN_0           
                 RCH =    99802840.6152                   RCH =     1242359.8374     RCH_0           

            TOTAL IN =   443150863.4791              TOTAL IN =     3322910.3711

          OUT:                                     OUT:
          ----                                     ----
              STO-SS =           0.0000                STO-SS =           0.0000     STORAGE         
              STO-SY =    71259075.7386                STO-SY =       56762.8169     STORAGE         
                 WEL =     4495967.2978                   WEL =       32369.4539     WEL_0           
                 DRN =   367395820.4427                   DRN =     3233778.1003     DRN_0           
                 RCH =           0.0000                   RCH =           0.0000     RCH_0           

           TOTAL OUT =   443150863.4790             TOTAL OUT =     3322910.3711

            IN - OUT =       3.3617E-05              IN - OUT =       3.0696E-06

 PERCENT DISCREPANCY =           0.00     PERCENT DISCREPANCY =           0.00




         TIME SUMMARY AT END OF TIME STEP    1 IN STRESS PERIOD  127
                          TIME STEP LENGTH =    1.00000    
                        STRESS PERIOD TIME =    1.00000    
                     TOTAL SIMULATION TIME =    127.000    

end timestep


start timestep kper="128" kstp="1" mode="normal"


 OUTPUT CONTROL FOR STRESS PERIOD 128 IS REPEATED USING SETTINGS FROM A PREVIOUS STRESS PERIOD.


 STRESS PERIOD 128 IS TRANSIENT


 REUSING WELS FROM LAST STRESS PERIOD

 REUSING DRNS FROM LAST STRESS PERIOD

 REUSING RCHS FROM LAST STRESS PERIOD


  VOLUME BUDGET FOR ENTIRE MODEL AT END OF TIME STEP    1, STRESS PERIOD 128
  ---------------------------------------------------------------------------------------------------

     CUMULATIVE VOLUME      L**3       RATES FOR THIS TIME STEP      L**3/T          PACKAGE NAME    
     ------------------                 ------------------------                     ----------------

           IN:                                      IN:
           ---                                      ---
              STO-SS =           0.0000                STO-SS =           0.0000     STORAGE         
              STO-SY =   345435507.6015                STO-SY =     2087484.7376     STORAGE         
                 WEL =           0.0000                   WEL =           0.0000     WEL_0           
                 DRN =           0.0000                   DRN =           0.0000     DRN_0           
                 RCH =   101065928.4802                   RCH =     1263087.8649     RCH_0           

            TOTAL IN =   446501436.0816              TOTAL IN =     3350572.6026

          OUT:                                     OUT:
          ----                                     ----
              STO-SS =           0.0000                STO-SS =           0.0000     STORAGE         
              STO-SY =    71313239.1613                STO-SY =       54163.4228     STORAGE         
                 WEL =     4526879.9000                   WEL =       30912.6021     WEL_0           
                 DRN =   370661317.0203                   DRN =     3265496.5776     DRN_0           
                 RCH =           0.0000                   RCH =           0.0000     RCH_0           

           TOTAL OUT =   446501436.0816             TOTAL OUT =     3350572.6026

            IN - OUT =       3.4630E-05              IN - OUT =       1.1302E-06

 PERCENT DISCREPANCY =           0.00     PERCENT DISCREPANCY =           0.00




         TIME SUMMARY AT END OF TIME STEP    1 IN STRESS PERIOD  128
                          TIME STEP LENGTH =    1.00000    
                        STRESS PERIOD TIME =    1.00000    
                     TOTAL SIMULATION TIME =    128.000    

end timestep


start timestep kper="129" kstp="1" mode="normal"


 OUTPUT CONTROL FOR STRESS PERIOD 129 IS REPEATED USING SETTINGS FROM A PREVIOUS STRESS PERIOD.


 STRESS PERIOD 129 IS TRANSIENT


 REUSING WELS FROM LAST STRESS PERIOD

 REUSING DRNS FROM LAST STRESS PERIOD

 REUSING RCHS FROM LAST STRESS PERIOD


  VOLUME BUDGET FOR ENTIRE MODEL AT END OF TIME STEP    1, STRESS PERIOD 129
  ---------------------------------------------------------------------------------------------------

     CUMULATIVE VOLUME      L**3       RATES FOR THIS TIME STEP      L**3/T          PACKAGE NAME    
     ------------------                 ------------------------                     ----------------

           IN:                                      IN:
           ---                                      ---
              STO-SS =           0.0000                STO-SS =           0.0000     STORAGE         
              STO-SY =   347546863.2993                STO-SY =     2111355.6978     STORAGE         
                 WEL =           0.0000                   WEL =           0.0000     WEL_0           
                 DRN =           0.0000                   DRN =           0.0000     DRN_0           
                 RCH =   102271968.8551                   RCH =     1206040.3749     RCH_0           

            TOTAL IN =   449818832.1544              TOTAL IN =     3317396.0727

          OUT:                                     OUT:
          ----                                     ----
              STO-SS =           0.0000                STO-SS =           0.0000     STORAGE         
              STO-SY =    71373631.9102                STO-SY =       60392.7488     STORAGE         
                 WEL =     4588629.1537                   WEL =       61749.2537     WEL_0           
                 DRN =   373856571.0905                   DRN =     3195254.0702     DRN_0           
                 RCH =           0.0000                   RCH =           0.0000     RCH_0           

           TOTAL OUT =   449818832.1543             TOTAL OUT =     3317396.0727

            IN - OUT =       3.8147E-05              IN - OUT =       3.4580E-06

 PERCENT DISCREPANCY =           0.00     PERCENT DISCREPANCY =           0.00




         TIME SUMMARY AT END OF TIME STEP    1 IN STRESS PERIOD  129
                          TIME STEP LENGTH =    1.00000    
                        STRESS PERIOD TIME =    1.00000    
                     TOTAL SIMULATION TIME =    129.000    

end timestep


start timestep kper="130" kstp="1" mode="normal"


 OUTPUT CONTROL FOR STRESS PERIOD 130 IS REPEATED USING SETTINGS FROM A PREVIOUS STRESS PERIOD.


 STRESS PERIOD 130 IS TRANSIENT


 REUSING WELS FROM LAST STRESS PERIOD

 REUSING DRNS FROM LAST STRESS PERIOD

 REUSING RCHS FROM LAST STRESS PERIOD


  VOLUME BUDGET FOR ENTIRE MODEL AT END OF TIME STEP    1, STRESS PERIOD 130
  ---------------------------------------------------------------------------------------------------

     CUMULATIVE VOLUME      L**3       RATES FOR THIS TIME STEP      L**3/T          PACKAGE NAME    
     ------------------                 ------------------------                     ----------------

           IN:                                      IN:
           ---                                      ---
              STO-SS =           0.0000                STO-SS =           0.0000     STORAGE         
              STO-SY =   349626186.0729                STO-SY =     2079322.7736     STORAGE         
                 WEL =           0.0000                   WEL =           0.0000     WEL_0           
                 DRN =           0.0000                   DRN =           0.0000     DRN_0           
                 RCH =   103523269.3427                   RCH =     1251300.4876     RCH_0           

            TOTAL IN =   453149455.4156              TOTAL IN =     3330623.2612

          OUT:                                     OUT:
          ----                                     ----
              STO-SS =           0.0000                STO-SS =           0.0000     STORAGE         
              STO-SY =    71421648.5170                STO-SY =       48016.6068     STORAGE         
                 WEL =     4624361.4934                   WEL =       35732.3397     WEL_0           
                 DRN =   377103445.4052                   DRN =     3246874.3147     DRN_0           
                 RCH =           0.0000                   RCH =           0.0000     RCH_0           

           TOTAL OUT =   453149455.4156             TOTAL OUT =     3330623.2612

            IN - OUT =       3.8266E-05              IN - OUT =       1.3318E-07

 PERCENT DISCREPANCY =           0.00     PERCENT DISCREPANCY =           0.00




         TIME SUMMARY AT END OF TIME STEP    1 IN STRESS PERIOD  130
                          TIME STEP LENGTH =    1.00000    
                        STRESS PERIOD TIME =    1.00000    
                     TOTAL SIMULATION TIME =    130.000    

end timestep


start timestep kper="131" kstp="1" mode="normal"


 OUTPUT CONTROL FOR STRESS PERIOD 131 IS REPEATED USING SETTINGS FROM A PREVIOUS STRESS PERIOD.


 STRESS PERIOD 131 IS TRANSIENT


 REUSING WELS FROM LAST STRESS PERIOD

 REUSING DRNS FROM LAST STRESS PERIOD

 REUSING RCHS FROM LAST STRESS PERIOD


  VOLUME BUDGET FOR ENTIRE MODEL AT END OF TIME STEP    1, STRESS PERIOD 131
  ---------------------------------------------------------------------------------------------------

     CUMULATIVE VOLUME      L**3       RATES FOR THIS TIME STEP      L**3/T          PACKAGE NAME    
     ------------------                 ------------------------                     ----------------

           IN:                                      IN:
           ---                                      ---
              STO-SS =           0.0000                STO-SS =           0.0000     STORAGE         
              STO-SY =   351708115.6508                STO-SY =     2081929.5779     STORAGE         
                 WEL =           0.0000                   WEL =           0.0000     WEL_0           
                 DRN =           0.0000                   DRN =           0.0000     DRN_0           
                 RCH =   104737360.5906                   RCH =     1214091.2478     RCH_0           

            TOTAL IN =   456445476.2413              TOTAL IN =     3296020.8257

          OUT:                                     OUT:
          ----                                     ----
              STO-SS =           0.0000                STO-SS =           0.0000     STORAGE         
              STO-SY =    71478838.8378                STO-SY =       57190.3208     STORAGE         
                 WEL =     4658458.6854                   WEL =       34097.1920     WEL_0           
                 DRN =   380308178.7181                   DRN =     3204733.3129     DRN_0           
                 RCH =           0.0000                   RCH =           0.0000     RCH_0           

           TOTAL OUT =   456445476.2413             TOTAL OUT =     3296020.8257

            IN - OUT =       3.5584E-05              IN - OUT =      -2.6170E-06

 PERCENT DISCREPANCY =           0.00     PERCENT DISCREPANCY =          -0.00




         TIME SUMMARY AT END OF TIME STEP    1 IN STRESS PERIOD  131
                          TIME STEP LENGTH =    1.00000    
                        STRESS PERIOD TIME =    1.00000    
                     TOTAL SIMULATION TIME =    131.000    

end timestep


start timestep kper="132" kstp="1" mode="normal"


 OUTPUT CONTROL FOR STRESS PERIOD 132 IS REPEATED USING SETTINGS FROM A PREVIOUS STRESS PERIOD.


 STRESS PERIOD 132 IS TRANSIENT


 REUSING WELS FROM LAST STRESS PERIOD

 REUSING DRNS FROM LAST STRESS PERIOD

 REUSING RCHS FROM LAST STRESS PERIOD


  VOLUME BUDGET FOR ENTIRE MODEL AT END OF TIME STEP    1, STRESS PERIOD 132
  ---------------------------------------------------------------------------------------------------

     CUMULATIVE VOLUME      L**3       RATES FOR THIS TIME STEP      L**3/T          PACKAGE NAME    
     ------------------                 ------------------------                     ----------------

           IN:                                      IN:
           ---                                      ---
              STO-SS =           0.0000                STO-SS =           0.0000     STORAGE         
              STO-SY =   353772186.1348                STO-SY =     2064070.4841     STORAGE         
                 WEL =           0.0000                   WEL =           0.0000     WEL_0           
                 DRN =           0.0000                   DRN =           0.0000     DRN_0           
                 RCH =   106003994.4904                   RCH =     1266633.8998     RCH_0           

            TOTAL IN =   459776180.6252              TOTAL IN =     3330704.3839

          OUT:                                     OUT:
          ----                                     ----
              STO-SS =           0.0000                STO-SS =           0.0000     STORAGE         
              STO-SY =    71528272.7733                STO-SY =       49433.9355     STORAGE         
                 WEL =     4693117.9009                   WEL =       34659.2156     WEL_0           
                 DRN =   383554789.9509                   DRN =     3246611.2328     DRN_0           
                 RCH =           0.0000                   RCH =           0.0000     RCH_0           

           TOTAL OUT =   459776180.6252             TOTAL OUT =     3330704.3839

            IN - OUT =       3.4690E-05              IN - OUT =      -9.7696E-07

 PERCENT DISCREPANCY =           0.00     PERCENT DISCREPANCY =          -0.00




         TIME SUMMARY AT END OF TIME STEP    1 IN STRESS PERIOD  132
                          TIME STEP LENGTH =    1.00000    
                        STRESS PERIOD TIME =    1.00000    
                     TOTAL SIMULATION TIME =    132.000    

end timestep


start timestep kper="133" kstp="1" mode="normal"


 OUTPUT CONTROL FOR STRESS PERIOD 133 IS REPEATED USING SETTINGS FROM A PREVIOUS STRESS PERIOD.


 STRESS PERIOD 133 IS TRANSIENT


 REUSING WELS FROM LAST STRESS PERIOD

 REUSING DRNS FROM LAST STRESS PERIOD

 REUSING RCHS FROM LAST STRESS PERIOD


  VOLUME BUDGET FOR ENTIRE MODEL AT END OF TIME STEP    1, STRESS PERIOD 133
  ---------------------------------------------------------------------------------------------------

     CUMULATIVE VOLUME      L**3       RATES FOR THIS TIME STEP      L**3/T          PACKAGE NAME    
     ------------------                 ------------------------                     ----------------

           IN:                                      IN:
           ---                                      ---
              STO-SS =           0.0000                STO-SS =           0.0000     STORAGE         
              STO-SY =   355807646.9261                STO-SY =     2035460.7912     STORAGE         
                 WEL =           0.0000                   WEL =           0.0000     WEL_0           
                 DRN =           0.0000                   DRN =           0.0000     DRN_0           
                 RCH =   107292668.2550                   RCH =     1288673.7646     RCH_0           

            TOTAL IN =   463100315.1810              TOTAL IN =     3324134.5558

          OUT:                                     OUT:
          ----                                     ----
              STO-SS =           0.0000                STO-SS =           0.0000     STORAGE         
              STO-SY =    71589039.8412                STO-SY =       60767.0679     STORAGE         
                 WEL =     4724872.3145                   WEL =       31754.4135     WEL_0           
                 DRN =   386786403.0253                   DRN =     3231613.0744     DRN_0           
                 RCH =           0.0000                   RCH =           0.0000     RCH_0           

           TOTAL OUT =   463100315.1810             TOTAL OUT =     3324134.5558

            IN - OUT =       3.5882E-05              IN - OUT =       1.1558E-06

 PERCENT DISCREPANCY =           0.00     PERCENT DISCREPANCY =           0.00




         TIME SUMMARY AT END OF TIME STEP    1 IN STRESS PERIOD  133
                          TIME STEP LENGTH =    1.00000    
                        STRESS PERIOD TIME =    1.00000    
                     TOTAL SIMULATION TIME =    133.000    

end timestep


start timestep kper="134" kstp="1" mode="normal"


 OUTPUT CONTROL FOR STRESS PERIOD 134 IS REPEATED USING SETTINGS FROM A PREVIOUS STRESS PERIOD.


 STRESS PERIOD 134 IS TRANSIENT


 REUSING WELS FROM LAST STRESS PERIOD

 REUSING DRNS FROM LAST STRESS PERIOD

 REUSING RCHS FROM LAST STRESS PERIOD


  VOLUME BUDGET FOR ENTIRE MODEL AT END OF TIME STEP    1, STRESS PERIOD 134
  ---------------------------------------------------------------------------------------------------

     CUMULATIVE VOLUME      L**3       RATES FOR THIS TIME STEP      L**3/T          PACKAGE NAME    
     ------------------                 ------------------------                     ----------------

           IN:                                      IN:
           ---                                      ---
              STO-SS =           0.0000                STO-SS =           0.0000     STORAGE         
              STO-SY =   357902508.2885                STO-SY =     2094861.3624     STORAGE         
                 WEL =           0.0000                   WEL =           0.0000     WEL_0           
                 DRN =           0.0000                   DRN =           0.0000     DRN_0           
                 RCH =   108517753.1823                   RCH =     1225084.9273     RCH_0           

            TOTAL IN =   466420261.4707              TOTAL IN =     3319946.2897

          OUT:                                     OUT:
          ----                                     ----
              STO-SS =           0.0000                STO-SS =           0.0000     STORAGE         
              STO-SY =    71635330.1646                STO-SY =       46290.3234     STORAGE         
                 WEL =     4788519.2505                   WEL =       63646.9361     WEL_0           
                 DRN =   389996412.0556                   DRN =     3210009.0303     DRN_0           
                 RCH =           0.0000                   RCH =           0.0000     RCH_0           

           TOTAL OUT =   466420261.4707             TOTAL OUT =     3319946.2897

            IN - OUT =       3.7611E-05              IN - OUT =       1.8138E-06

 PERCENT DISCREPANCY =           0.00     PERCENT DISCREPANCY =           0.00




         TIME SUMMARY AT END OF TIME STEP    1 IN STRESS PERIOD  134
                          TIME STEP LENGTH =    1.00000    
                        STRESS PERIOD TIME =    1.00000    
                     TOTAL SIMULATION TIME =    134.000    

end timestep


start timestep kper="135" kstp="1" mode="normal"


 OUTPUT CONTROL FOR STRESS PERIOD 135 IS REPEATED USING SETTINGS FROM A PREVIOUS STRESS PERIOD.


 STRESS PERIOD 135 IS TRANSIENT


 REUSING WELS FROM LAST STRESS PERIOD

 REUSING DRNS FROM LAST STRESS PERIOD

 REUSING RCHS FROM LAST STRESS PERIOD


  VOLUME BUDGET FOR ENTIRE MODEL AT END OF TIME STEP    1, STRESS PERIOD 135
  ---------------------------------------------------------------------------------------------------

     CUMULATIVE VOLUME      L**3       RATES FOR THIS TIME STEP      L**3/T          PACKAGE NAME    
     ------------------                 ------------------------                     ----------------

           IN:                                      IN:
           ---                                      ---
              STO-SS =           0.0000                STO-SS =           0.0000     STORAGE         
              STO-SY =   359998679.3042                STO-SY =     2096171.0158     STORAGE         
                 WEL =           0.0000                   WEL =           0.0000     WEL_0           
                 DRN =           0.0000                   DRN =           0.0000     DRN_0           
                 RCH =   109670790.7638                   RCH =     1153037.5815     RCH_0           

            TOTAL IN =   469669470.0680              TOTAL IN =     3249208.5973

          OUT:                                     OUT:
          ----                                     ----
              STO-SS =           0.0000                STO-SS =           0.0000     STORAGE         
              STO-SY =    71680274.4240                STO-SY =       44944.2594     STORAGE         
                 WEL =     4837418.4686                   WEL =       48899.2180     WEL_0           
                 DRN =   393151777.1754                   DRN =     3155365.1198     DRN_0           
                 RCH =           0.0000                   RCH =           0.0000     RCH_0           

           TOTAL OUT =   469669470.0680             TOTAL OUT =     3249208.5973

            IN - OUT =       3.6240E-05              IN - OUT =      -1.3816E-06

 PERCENT DISCREPANCY =           0.00     PERCENT DISCREPANCY =          -0.00




         TIME SUMMARY AT END OF TIME STEP    1 IN STRESS PERIOD  135
                          TIME STEP LENGTH =    1.00000    
                        STRESS PERIOD TIME =    1.00000    
                     TOTAL SIMULATION TIME =    135.000    

end timestep


start timestep kper="136" kstp="1" mode="normal"


 OUTPUT CONTROL FOR STRESS PERIOD 136 IS REPEATED USING SETTINGS FROM A PREVIOUS STRESS PERIOD.


 STRESS PERIOD 136 IS TRANSIENT


 REUSING WELS FROM LAST STRESS PERIOD

 REUSING DRNS FROM LAST STRESS PERIOD

 REUSING RCHS FROM LAST STRESS PERIOD


  VOLUME BUDGET FOR ENTIRE MODEL AT END OF TIME STEP    1, STRESS PERIOD 136
  ---------------------------------------------------------------------------------------------------

     CUMULATIVE VOLUME      L**3       RATES FOR THIS TIME STEP      L**3/T          PACKAGE NAME    
     ------------------                 ------------------------                     ----------------

           IN:                                      IN:
           ---                                      ---
              STO-SS =           0.0000                STO-SS =           0.0000     STORAGE         
              STO-SY =   362093260.2317                STO-SY =     2094580.9274     STORAGE         
                 WEL =           0.0000                   WEL =           0.0000     WEL_0           
                 DRN =           0.0000                   DRN =           0.0000     DRN_0           
                 RCH =   110864723.5162                   RCH =     1193932.7524     RCH_0           

            TOTAL IN =   472957983.7479              TOTAL IN =     3288513.6798

          OUT:                                     OUT:
          ----                                     ----
              STO-SS =           0.0000                STO-SS =           0.0000     STORAGE         
              STO-SY =    71722843.4236                STO-SY =       42568.9996     STORAGE         
                 WEL =     4892018.9576                   WEL =       54600.4890     WEL_0           
                 DRN =   396343121.3666                   DRN =     3191344.1911     DRN_0           
                 RCH =           0.0000                   RCH =           0.0000     RCH_0           

           TOTAL OUT =   472957983.7478             TOTAL OUT =     3288513.6798

            IN - OUT =       4.1127E-05              IN - OUT =       4.8596E-06

 PERCENT DISCREPANCY =           0.00     PERCENT DISCREPANCY =           0.00




         TIME SUMMARY AT END OF TIME STEP    1 IN STRESS PERIOD  136
                          TIME STEP LENGTH =    1.00000    
                        STRESS PERIOD TIME =    1.00000    
                     TOTAL SIMULATION TIME =    136.000    

end timestep


start timestep kper="137" kstp="1" mode="normal"


 OUTPUT CONTROL FOR STRESS PERIOD 137 IS REPEATED USING SETTINGS FROM A PREVIOUS STRESS PERIOD.


 STRESS PERIOD 137 IS TRANSIENT


 REUSING WELS FROM LAST STRESS PERIOD

 REUSING DRNS FROM LAST STRESS PERIOD

 REUSING RCHS FROM LAST STRESS PERIOD


  VOLUME BUDGET FOR ENTIRE MODEL AT END OF TIME STEP    1, STRESS PERIOD 137
  ---------------------------------------------------------------------------------------------------

     CUMULATIVE VOLUME      L**3       RATES FOR THIS TIME STEP      L**3/T          PACKAGE NAME    
     ------------------                 ------------------------                     ----------------

           IN:                                      IN:
           ---                                      ---
              STO-SS =           0.0000                STO-SS =           0.0000     STORAGE         
              STO-SY =   364170212.4497                STO-SY =     2076952.2181     STORAGE         
                 WEL =           0.0000                   WEL =           0.0000     WEL_0           
                 DRN =           0.0000                   DRN =           0.0000     DRN_0           
                 RCH =   112042087.3052                   RCH =     1177363.7890     RCH_0           

            TOTAL IN =   476212299.7550              TOTAL IN =     3254316.0071

          OUT:                                     OUT:
          ----                                     ----
              STO-SS =           0.0000                STO-SS =           0.0000     STORAGE         
              STO-SY =    71773193.4902                STO-SY =       50350.0665     STORAGE         
                 WEL =     4934617.0898                   WEL =       42598.1322     WEL_0           
                 DRN =   399504489.1749                   DRN =     3161367.8083     DRN_0           
                 RCH =           0.0000                   RCH =           0.0000     RCH_0           

           TOTAL OUT =   476212299.7549             TOTAL OUT =     3254316.0071

            IN - OUT =       4.2200E-05              IN - OUT =       1.0347E-06

 PERCENT DISCREPANCY =           0.00     PERCENT DISCREPANCY =           0.00




         TIME SUMMARY AT END OF TIME STEP    1 IN STRESS PERIOD  137
                          TIME STEP LENGTH =    1.00000    
                        STRESS PERIOD TIME =    1.00000    
                     TOTAL SIMULATION TIME =    137.000    

end timestep


start timestep kper="138" kstp="1" mode="normal"


 OUTPUT CONTROL FOR STRESS PERIOD 138 IS REPEATED USING SETTINGS FROM A PREVIOUS STRESS PERIOD.


 STRESS PERIOD 138 IS TRANSIENT


 REUSING WELS FROM LAST STRESS PERIOD

 REUSING DRNS FROM LAST STRESS PERIOD

 REUSING RCHS FROM LAST STRESS PERIOD


  VOLUME BUDGET FOR ENTIRE MODEL AT END OF TIME STEP    1, STRESS PERIOD 138
  ---------------------------------------------------------------------------------------------------

     CUMULATIVE VOLUME      L**3       RATES FOR THIS TIME STEP      L**3/T          PACKAGE NAME    
     ------------------                 ------------------------                     ----------------

           IN:                                      IN:
           ---                                      ---
              STO-SS =           0.0000                STO-SS =           0.0000     STORAGE         
              STO-SY =   366233676.8603                STO-SY =     2063464.4106     STORAGE         
                 WEL =           0.0000                   WEL =           0.0000     WEL_0           
                 DRN =           0.0000                   DRN =           0.0000     DRN_0           
                 RCH =   113258072.3240                   RCH =     1215985.0188     RCH_0           

            TOTAL IN =   479491749.1844              TOTAL IN =     3279449.4294

          OUT:                                     OUT:
          ----                                     ----
              STO-SS =           0.0000                STO-SS =           0.0000     STORAGE         
              STO-SY =    71814920.8941                STO-SY =       41727.4040     STORAGE         
                 WEL =     4974072.5731                   WEL =       39455.4833     WEL_0           
                 DRN =   402702755.7171                   DRN =     3198266.5422     DRN_0           
                 RCH =           0.0000                   RCH =           0.0000     RCH_0           

           TOTAL OUT =   479491749.1843             TOTAL OUT =     3279449.4294

            IN - OUT =       4.3213E-05              IN - OUT =       1.0347E-06

 PERCENT DISCREPANCY =           0.00     PERCENT DISCREPANCY =           0.00




         TIME SUMMARY AT END OF TIME STEP    1 IN STRESS PERIOD  138
                          TIME STEP LENGTH =    1.00000    
                        STRESS PERIOD TIME =    1.00000    
                     TOTAL SIMULATION TIME =    138.000    

end timestep


start timestep kper="139" kstp="1" mode="normal"


 OUTPUT CONTROL FOR STRESS PERIOD 139 IS REPEATED USING SETTINGS FROM A PREVIOUS STRESS PERIOD.


 STRESS PERIOD 139 IS TRANSIENT


 REUSING WELS FROM LAST STRESS PERIOD

 REUSING DRNS FROM LAST STRESS PERIOD

 REUSING RCHS FROM LAST STRESS PERIOD


  VOLUME BUDGET FOR ENTIRE MODEL AT END OF TIME STEP    1, STRESS PERIOD 139
  ---------------------------------------------------------------------------------------------------

     CUMULATIVE VOLUME      L**3       RATES FOR THIS TIME STEP      L**3/T          PACKAGE NAME    
     ------------------                 ------------------------                     ----------------

           IN:                                      IN:
           ---                                      ---
              STO-SS =           0.0000                STO-SS =           0.0000     STORAGE         
              STO-SY =   368304743.2242                STO-SY =     2071066.3638     STORAGE         
                 WEL =           0.0000                   WEL =           0.0000     WEL_0           
                 DRN =           0.0000                   DRN =           0.0000     DRN_0           
                 RCH =   114431833.7182                   RCH =     1173761.3941     RCH_0           

            TOTAL IN =   482736576.9423              TOTAL IN =     3244827.7580

          OUT:                                     OUT:
          ----                                     ----
              STO-SS =           0.0000                STO-SS =           0.0000     STORAGE         
              STO-SY =    71859870.9506                STO-SY =       44950.0565     STORAGE         
                 WEL =     5027199.1299                   WEL =       53126.5568     WEL_0           
                 DRN =   405849506.8618                   DRN =     3146751.1447     DRN_0           
                 RCH =           0.0000                   RCH =           0.0000     RCH_0           

           TOTAL OUT =   482736576.9423             TOTAL OUT =     3244827.7580

            IN - OUT =       4.1962E-05              IN - OUT =      -1.2694E-06

 PERCENT DISCREPANCY =           0.00     PERCENT DISCREPANCY =          -0.00




         TIME SUMMARY AT END OF TIME STEP    1 IN STRESS PERIOD  139
                          TIME STEP LENGTH =    1.00000    
                        STRESS PERIOD TIME =    1.00000    
                     TOTAL SIMULATION TIME =    139.000    

end timestep


start timestep kper="140" kstp="1" mode="normal"


 OUTPUT CONTROL FOR STRESS PERIOD 140 IS REPEATED USING SETTINGS FROM A PREVIOUS STRESS PERIOD.


 STRESS PERIOD 140 IS TRANSIENT


 REUSING WELS FROM LAST STRESS PERIOD

 REUSING DRNS FROM LAST STRESS PERIOD

 REUSING RCHS FROM LAST STRESS PERIOD


  VOLUME BUDGET FOR ENTIRE MODEL AT END OF TIME STEP    1, STRESS PERIOD 140
  ---------------------------------------------------------------------------------------------------

     CUMULATIVE VOLUME      L**3       RATES FOR THIS TIME STEP      L**3/T          PACKAGE NAME    
     ------------------                 ------------------------                     ----------------

           IN:                                      IN:
           ---                                      ---
              STO-SS =           0.0000                STO-SS =           0.0000     STORAGE         
              STO-SY =   370382715.2462                STO-SY =     2077972.0220     STORAGE         
                 WEL =           0.0000                   WEL =           0.0000     WEL_0           
                 DRN =           0.0000                   DRN =           0.0000     DRN_0           
                 RCH =   115623402.3219                   RCH =     1191568.6038     RCH_0           

            TOTAL IN =   486006117.5681              TOTAL IN =     3269540.6258

          OUT:                                     OUT:
          ----                                     ----
              STO-SS =           0.0000                STO-SS =           0.0000     STORAGE         
              STO-SY =    71902270.7047                STO-SY =       42399.7541     STORAGE         
                 WEL =     5082789.0542                   WEL =       55589.9242     WEL_0           
                 DRN =   409021057.8092                   DRN =     3171550.9474     DRN_0           
                 RCH =           0.0000                   RCH =           0.0000     RCH_0           

           TOTAL OUT =   486006117.5681             TOTAL OUT =     3269540.6258

            IN - OUT =       4.4286E-05              IN - OUT =       2.3707E-06

 PERCENT DISCREPANCY =           0.00     PERCENT DISCREPANCY =           0.00




         TIME SUMMARY AT END OF TIME STEP    1 IN STRESS PERIOD  140
                          TIME STEP LENGTH =    1.00000    
                        STRESS PERIOD TIME =    1.00000    
                     TOTAL SIMULATION TIME =    140.000    

end timestep


start timestep kper="141" kstp="1" mode="normal"


 OUTPUT CONTROL FOR STRESS PERIOD 141 IS REPEATED USING SETTINGS FROM A PREVIOUS STRESS PERIOD.


 STRESS PERIOD 141 IS TRANSIENT


 REUSING WELS FROM LAST STRESS PERIOD

 REUSING DRNS FROM LAST STRESS PERIOD

 REUSING RCHS FROM LAST STRESS PERIOD


  VOLUME BUDGET FOR ENTIRE MODEL AT END OF TIME STEP    1, STRESS PERIOD 141
  ---------------------------------------------------------------------------------------------------

     CUMULATIVE VOLUME      L**3       RATES FOR THIS TIME STEP      L**3/T          PACKAGE NAME    
     ------------------                 ------------------------                     ----------------

           IN:                                      IN:
           ---                                      ---
              STO-SS =           0.0000                STO-SS =           0.0000     STORAGE         
              STO-SY =   372468798.8754                STO-SY =     2086083.6292     STORAGE         
                 WEL =           0.0000                   WEL =           0.0000     WEL_0           
                 DRN =           0.0000                   DRN =           0.0000     DRN_0           
                 RCH =   116754804.7817                   RCH =     1131402.4598     RCH_0           

            TOTAL IN =   489223603.6571              TOTAL IN =     3217486.0890

          OUT:                                     OUT:
          ----                                     ----
              STO-SS =           0.0000                STO-SS =           0.0000     STORAGE         
              STO-SY =    71945233.1901                STO-SY =       42962.4854     STORAGE         
                 WEL =     5135751.6745                   WEL =       52962.6204     WEL_0           
                 DRN =   412142618.7925                   DRN =     3121560.9833     DRN_0           
                 RCH =           0.0000                   RCH =           0.0000     RCH_0           

           TOTAL OUT =   489223603.6571             TOTAL OUT =     3217486.0890

            IN - OUT =       4.4882E-05              IN - OUT =       6.3935E-07

 PERCENT DISCREPANCY =           0.00     PERCENT DISCREPANCY =           0.00




         TIME SUMMARY AT END OF TIME STEP    1 IN STRESS PERIOD  141
                          TIME STEP LENGTH =    1.00000    
                        STRESS PERIOD TIME =    1.00000    
                     TOTAL SIMULATION TIME =    141.000    

end timestep


start timestep kper="142" kstp="1" mode="normal"


 OUTPUT CONTROL FOR STRESS PERIOD 142 IS REPEATED USING SETTINGS FROM A PREVIOUS STRESS PERIOD.


 STRESS PERIOD 142 IS TRANSIENT


 REUSING WELS FROM LAST STRESS PERIOD

 REUSING DRNS FROM LAST STRESS PERIOD

 REUSING RCHS FROM LAST STRESS PERIOD


  VOLUME BUDGET FOR ENTIRE MODEL AT END OF TIME STEP    1, STRESS PERIOD 142
  ---------------------------------------------------------------------------------------------------

     CUMULATIVE VOLUME      L**3       RATES FOR THIS TIME STEP      L**3/T          PACKAGE NAME    
     ------------------                 ------------------------                     ----------------

           IN:                                      IN:
           ---                                      ---
              STO-SS =           0.0000                STO-SS =           0.0000     STORAGE         
              STO-SY =   374551419.6743                STO-SY =     2082620.7989     STORAGE         
                 WEL =           0.0000                   WEL =           0.0000     WEL_0           
                 DRN =           0.0000                   DRN =           0.0000     DRN_0           
                 RCH =   117924430.4592                   RCH =     1169625.6775     RCH_0           

            TOTAL IN =   492475850.1336              TOTAL IN =     3252246.4764

          OUT:                                     OUT:
          ----                                     ----
              STO-SS =           0.0000                STO-SS =           0.0000     STORAGE         
              STO-SY =    71986082.1328                STO-SY =       40848.9427     STORAGE         
                 WEL =     5197462.0164                   WEL =       61710.3419     WEL_0           
                 DRN =   415292305.9844                   DRN =     3149687.1918     DRN_0           
                 RCH =           0.0000                   RCH =           0.0000     RCH_0           

           TOTAL OUT =   492475850.1335             TOTAL OUT =     3252246.4764

            IN - OUT =       4.5419E-05              IN - OUT =       4.8988E-07

 PERCENT DISCREPANCY =           0.00     PERCENT DISCREPANCY =           0.00




         TIME SUMMARY AT END OF TIME STEP    1 IN STRESS PERIOD  142
                          TIME STEP LENGTH =    1.00000    
                        STRESS PERIOD TIME =    1.00000    
                     TOTAL SIMULATION TIME =    142.000    

end timestep


start timestep kper="143" kstp="1" mode="normal"


 OUTPUT CONTROL FOR STRESS PERIOD 143 IS REPEATED USING SETTINGS FROM A PREVIOUS STRESS PERIOD.


 STRESS PERIOD 143 IS TRANSIENT


 REUSING WELS FROM LAST STRESS PERIOD

 REUSING DRNS FROM LAST STRESS PERIOD

 REUSING RCHS FROM LAST STRESS PERIOD


  VOLUME BUDGET FOR ENTIRE MODEL AT END OF TIME STEP    1, STRESS PERIOD 143
  ---------------------------------------------------------------------------------------------------

     CUMULATIVE VOLUME      L**3       RATES FOR THIS TIME STEP      L**3/T          PACKAGE NAME    
     ------------------                 ------------------------                     ----------------

           IN:                                      IN:
           ---                                      ---
              STO-SS =           0.0000                STO-SS =           0.0000     STORAGE         
              STO-SY =   376639512.8333                STO-SY =     2088093.1589     STORAGE         
                 WEL =           0.0000                   WEL =           0.0000     WEL_0           
                 DRN =           0.0000                   DRN =           0.0000     DRN_0           
                 RCH =   119036366.5999                   RCH =     1111936.1407     RCH_0           

            TOTAL IN =   495675879.4332              TOTAL IN =     3200029.2996

          OUT:                                     OUT:
          ----                                     ----
              STO-SS =           0.0000                STO-SS =           0.0000     STORAGE         
              STO-SY =    72027066.2162                STO-SY =       40984.0834     STORAGE         
                 WEL =     5257018.7658                   WEL =       59556.7495     WEL_0           
                 DRN =   418391794.4511                   DRN =     3099488.4667     DRN_0           
                 RCH =           0.0000                   RCH =           0.0000     RCH_0           

           TOTAL OUT =   495675879.4331             TOTAL OUT =     3200029.2996

            IN - OUT =       4.4644E-05              IN - OUT =      -7.8650E-07

 PERCENT DISCREPANCY =           0.00     PERCENT DISCREPANCY =          -0.00




         TIME SUMMARY AT END OF TIME STEP    1 IN STRESS PERIOD  143
                          TIME STEP LENGTH =    1.00000    
                        STRESS PERIOD TIME =    1.00000    
                     TOTAL SIMULATION TIME =    143.000    

end timestep


start timestep kper="144" kstp="1" mode="normal"


 OUTPUT CONTROL FOR STRESS PERIOD 144 IS REPEATED USING SETTINGS FROM A PREVIOUS STRESS PERIOD.


 STRESS PERIOD 144 IS TRANSIENT


 REUSING WELS FROM LAST STRESS PERIOD

 REUSING DRNS FROM LAST STRESS PERIOD

 REUSING RCHS FROM LAST STRESS PERIOD


  VOLUME BUDGET FOR ENTIRE MODEL AT END OF TIME STEP    1, STRESS PERIOD 144
  ---------------------------------------------------------------------------------------------------

     CUMULATIVE VOLUME      L**3       RATES FOR THIS TIME STEP      L**3/T          PACKAGE NAME    
     ------------------                 ------------------------                     ----------------

           IN:                                      IN:
           ---                                      ---
              STO-SS =           0.0000                STO-SS =           0.0000     STORAGE         
              STO-SY =   378694479.6701                STO-SY =     2054966.8368     STORAGE         
                 WEL =           0.0000                   WEL =           0.0000     WEL_0           
                 DRN =           0.0000                   DRN =           0.0000     DRN_0           
                 RCH =   120218290.3953                   RCH =     1181923.7953     RCH_0           

            TOTAL IN =   498912770.0653              TOTAL IN =     3236890.6321

          OUT:                                     OUT:
          ----                                     ----
              STO-SS =           0.0000                STO-SS =           0.0000     STORAGE         
              STO-SY =    72066121.3498                STO-SY =       39055.1335     STORAGE         
                 WEL =     5304493.4344                   WEL =       47474.6685     WEL_0           
                 DRN =   421542155.2812                   DRN =     3150360.8301     DRN_0           
                 RCH =           0.0000                   RCH =           0.0000     RCH_0           

           TOTAL OUT =   498912770.0653             TOTAL OUT =     3236890.6321

            IN - OUT =       4.5717E-05              IN - OUT =       1.0664E-06

 PERCENT DISCREPANCY =           0.00     PERCENT DISCREPANCY =           0.00




         TIME SUMMARY AT END OF TIME STEP    1 IN STRESS PERIOD  144
                          TIME STEP LENGTH =    1.00000    
                        STRESS PERIOD TIME =    1.00000    
                     TOTAL SIMULATION TIME =    144.000    

end timestep


start timestep kper="145" kstp="1" mode="normal"


 OUTPUT CONTROL FOR STRESS PERIOD 145 IS REPEATED USING SETTINGS FROM A PREVIOUS STRESS PERIOD.


 STRESS PERIOD 145 IS TRANSIENT


 REUSING WELS FROM LAST STRESS PERIOD

 REUSING DRNS FROM LAST STRESS PERIOD

 REUSING RCHS FROM LAST STRESS PERIOD


  VOLUME BUDGET FOR ENTIRE MODEL AT END OF TIME STEP    1, STRESS PERIOD 145
  ---------------------------------------------------------------------------------------------------

     CUMULATIVE VOLUME      L**3       RATES FOR THIS TIME STEP      L**3/T          PACKAGE NAME    
     ------------------                 ------------------------                     ----------------

           IN:                                      IN:
           ---                                      ---
              STO-SS =           0.0000                STO-SS =           0.0000     STORAGE         
              STO-SY =   380740785.3341                STO-SY =     2046305.6640     STORAGE         
                 WEL =           0.0000                   WEL =           0.0000     WEL_0           
                 DRN =           0.0000                   DRN =           0.0000     DRN_0           
                 RCH =   121370363.0689                   RCH =     1152072.6737     RCH_0           

            TOTAL IN =   502111148.4030              TOTAL IN =     3198378.3377

          OUT:                                     OUT:
          ----                                     ----
              STO-SS =           0.0000                STO-SS =           0.0000     STORAGE         
              STO-SY =    72105867.8596                STO-SY =       39746.5099     STORAGE         
                 WEL =     5344130.3120                   WEL =       39636.8776     WEL_0           
                 DRN =   424661150.2314                   DRN =     3118994.9502     DRN_0           
                 RCH =           0.0000                   RCH =           0.0000     RCH_0           

           TOTAL OUT =   502111148.4030             TOTAL OUT =     3198378.3377

            IN - OUT =       4.6551E-05              IN - OUT =       8.7125E-07

 PERCENT DISCREPANCY =           0.00     PERCENT DISCREPANCY =           0.00




         TIME SUMMARY AT END OF TIME STEP    1 IN STRESS PERIOD  145
                          TIME STEP LENGTH =    1.00000    
                        STRESS PERIOD TIME =    1.00000    
                     TOTAL SIMULATION TIME =    145.000    

end timestep


start timestep kper="146" kstp="1" mode="normal"


 OUTPUT CONTROL FOR STRESS PERIOD 146 IS REPEATED USING SETTINGS FROM A PREVIOUS STRESS PERIOD.


 STRESS PERIOD 146 IS TRANSIENT


 REUSING WELS FROM LAST STRESS PERIOD

 REUSING DRNS FROM LAST STRESS PERIOD

 REUSING RCHS FROM LAST STRESS PERIOD


  VOLUME BUDGET FOR ENTIRE MODEL AT END OF TIME STEP    1, STRESS PERIOD 146
  ---------------------------------------------------------------------------------------------------

     CUMULATIVE VOLUME      L**3       RATES FOR THIS TIME STEP      L**3/T          PACKAGE NAME    
     ------------------                 ------------------------                     ----------------

           IN:                                      IN:
           ---                                      ---
              STO-SS =           0.0000                STO-SS =           0.0000     STORAGE         
              STO-SY =   382787614.1743                STO-SY =     2046828.8402     STORAGE         
                 WEL =           0.0000                   WEL =           0.0000     WEL_0           
                 DRN =           0.0000                   DRN =           0.0000     DRN_0           
                 RCH =   122548325.3546                   RCH =     1177962.2857     RCH_0           

            TOTAL IN =   505335939.5289              TOTAL IN =     3224791.1259

          OUT:                                     OUT:
          ----                                     ----
              STO-SS =           0.0000                STO-SS =           0.0000     STORAGE         
              STO-SY =    72143366.3543                STO-SY =       37498.4947     STORAGE         
                 WEL =     5388783.1636                   WEL =       44652.8516     WEL_0           
                 DRN =   427803790.0110                   DRN =     3142639.7796     DRN_0           
                 RCH =           0.0000                   RCH =           0.0000     RCH_0           

           TOTAL OUT =   505335939.5289             TOTAL OUT =     3224791.1259

            IN - OUT =       4.8757E-05              IN - OUT =       2.1900E-06

 PERCENT DISCREPANCY =           0.00     PERCENT DISCREPANCY =           0.00




         TIME SUMMARY AT END OF TIME STEP    1 IN STRESS PERIOD  146
                          TIME STEP LENGTH =    1.00000    
                        STRESS PERIOD TIME =    1.00000    
                     TOTAL SIMULATION TIME =    146.000    

end timestep


start timestep kper="147" kstp="1" mode="normal"


 OUTPUT CONTROL FOR STRESS PERIOD 147 IS REPEATED USING SETTINGS FROM A PREVIOUS STRESS PERIOD.


 STRESS PERIOD 147 IS TRANSIENT


 REUSING WELS FROM LAST STRESS PERIOD

 REUSING DRNS FROM LAST STRESS PERIOD

 REUSING RCHS FROM LAST STRESS PERIOD


  VOLUME BUDGET FOR ENTIRE MODEL AT END OF TIME STEP    1, STRESS PERIOD 147
  ---------------------------------------------------------------------------------------------------

     CUMULATIVE VOLUME      L**3       RATES FOR THIS TIME STEP      L**3/T          PACKAGE NAME    
     ------------------                 ------------------------                     ----------------

           IN:                                      IN:
           ---                                      ---
              STO-SS =           0.0000                STO-SS =           0.0000     STORAGE         
              STO-SY =   384858455.3551                STO-SY =     2070841.1808     STORAGE         
                 WEL =           0.0000                   WEL =           0.0000     WEL_0           
                 DRN =           0.0000                   DRN =           0.0000     DRN_0           
                 RCH =   123677392.4456                   RCH =     1129067.0910     RCH_0           

            TOTAL IN =   508535847.8008              TOTAL IN =     3199908.2718

          OUT:                                     OUT:
          ----                                     ----
              STO-SS =           0.0000                STO-SS =           0.0000     STORAGE         
              STO-SY =    72180721.8797                STO-SY =       37355.5253     STORAGE         
                 WEL =     5449477.3849                   WEL =       60694.2213     WEL_0           
                 DRN =   430905648.5362                   DRN =     3101858.5252     DRN_0           
                 RCH =           0.0000                   RCH =           0.0000     RCH_0           

           TOTAL OUT =   508535847.8007             TOTAL OUT =     3199908.2718

            IN - OUT =       4.8459E-05              IN - OUT =      -2.8871E-07

 PERCENT DISCREPANCY =           0.00     PERCENT DISCREPANCY =          -0.00




         TIME SUMMARY AT END OF TIME STEP    1 IN STRESS PERIOD  147
                          TIME STEP LENGTH =    1.00000    
                        STRESS PERIOD TIME =    1.00000    
                     TOTAL SIMULATION TIME =    147.000    

end timestep


start timestep kper="148" kstp="1" mode="normal"


 OUTPUT CONTROL FOR STRESS PERIOD 148 IS REPEATED USING SETTINGS FROM A PREVIOUS STRESS PERIOD.


 STRESS PERIOD 148 IS TRANSIENT


 REUSING WELS FROM LAST STRESS PERIOD

 REUSING DRNS FROM LAST STRESS PERIOD

 REUSING RCHS FROM LAST STRESS PERIOD


  VOLUME BUDGET FOR ENTIRE MODEL AT END OF TIME STEP    1, STRESS PERIOD 148
  ---------------------------------------------------------------------------------------------------

     CUMULATIVE VOLUME      L**3       RATES FOR THIS TIME STEP      L**3/T          PACKAGE NAME    
     ------------------                 ------------------------                     ----------------

           IN:                                      IN:
           ---                                      ---
              STO-SS =           0.0000                STO-SS =           0.0000     STORAGE         
              STO-SY =   386914941.1914                STO-SY =     2056485.8363     STORAGE         
                 WEL =           0.0000                   WEL =           0.0000     WEL_0           
                 DRN =           0.0000                   DRN =           0.0000     DRN_0           
                 RCH =   124813449.4750                   RCH =     1136057.0294     RCH_0           

            TOTAL IN =   511728390.6664              TOTAL IN =     3192542.8656

          OUT:                                     OUT:
          ----                                     ----
              STO-SS =           0.0000                STO-SS =           0.0000     STORAGE         
              STO-SY =    72216775.4188                STO-SY =       36053.5392     STORAGE         
                 WEL =     5495955.0411                   WEL =       46477.6562     WEL_0           
                 DRN =   434015660.2064                   DRN =     3110011.6702     DRN_0           
                 RCH =           0.0000                   RCH =           0.0000     RCH_0           

           TOTAL OUT =   511728390.6663             TOTAL OUT =     3192542.8656

            IN - OUT =       4.8280E-05              IN - OUT =      -1.7183E-07

 PERCENT DISCREPANCY =           0.00     PERCENT DISCREPANCY =          -0.00




         TIME SUMMARY AT END OF TIME STEP    1 IN STRESS PERIOD  148
                          TIME STEP LENGTH =    1.00000    
                        STRESS PERIOD TIME =    1.00000    
                     TOTAL SIMULATION TIME =    148.000    

end timestep


start timestep kper="149" kstp="1" mode="normal"


 OUTPUT CONTROL FOR STRESS PERIOD 149 IS REPEATED USING SETTINGS FROM A PREVIOUS STRESS PERIOD.


 STRESS PERIOD 149 IS TRANSIENT


 REUSING WELS FROM LAST STRESS PERIOD

 REUSING DRNS FROM LAST STRESS PERIOD

 REUSING RCHS FROM LAST STRESS PERIOD


  VOLUME BUDGET FOR ENTIRE MODEL AT END OF TIME STEP    1, STRESS PERIOD 149
  ---------------------------------------------------------------------------------------------------

     CUMULATIVE VOLUME      L**3       RATES FOR THIS TIME STEP      L**3/T          PACKAGE NAME    
     ------------------                 ------------------------                     ----------------

           IN:                                      IN:
           ---                                      ---
              STO-SS =           0.0000                STO-SS =           0.0000     STORAGE         
              STO-SY =   388965756.6139                STO-SY =     2050815.4225     STORAGE         
                 WEL =           0.0000                   WEL =           0.0000     WEL_0           
                 DRN =           0.0000                   DRN =           0.0000     DRN_0           
                 RCH =   125946923.4727                   RCH =     1133473.9977     RCH_0           

            TOTAL IN =   514912680.0866              TOTAL IN =     3184289.4202

          OUT:                                     OUT:
          ----                                     ----
              STO-SS =           0.0000                STO-SS =           0.0000     STORAGE         
              STO-SY =    72261241.3219                STO-SY =       44465.9030     STORAGE         
                 WEL =     5540345.5236                   WEL =       44390.4824     WEL_0           
                 DRN =   437111093.2412                   DRN =     3095433.0348     DRN_0           
                 RCH =           0.0000                   RCH =           0.0000     RCH_0           

           TOTAL OUT =   514912680.0866             TOTAL OUT =     3184289.4202

            IN - OUT =       4.9353E-05              IN - OUT =       1.0165E-06

 PERCENT DISCREPANCY =           0.00     PERCENT DISCREPANCY =           0.00




         TIME SUMMARY AT END OF TIME STEP    1 IN STRESS PERIOD  149
                          TIME STEP LENGTH =    1.00000    
                        STRESS PERIOD TIME =    1.00000    
                     TOTAL SIMULATION TIME =    149.000    

end timestep


start timestep kper="150" kstp="1" mode="normal"


 OUTPUT CONTROL FOR STRESS PERIOD 150 IS REPEATED USING SETTINGS FROM A PREVIOUS STRESS PERIOD.


 STRESS PERIOD 150 IS TRANSIENT


 REUSING WELS FROM LAST STRESS PERIOD

 REUSING DRNS FROM LAST STRESS PERIOD

 REUSING RCHS FROM LAST STRESS PERIOD


  VOLUME BUDGET FOR ENTIRE MODEL AT END OF TIME STEP    1, STRESS PERIOD 150
  ---------------------------------------------------------------------------------------------------

     CUMULATIVE VOLUME      L**3       RATES FOR THIS TIME STEP      L**3/T          PACKAGE NAME    
     ------------------                 ------------------------                     ----------------

           IN:                                      IN:
           ---                                      ---
              STO-SS =           0.0000                STO-SS =           0.0000     STORAGE         
              STO-SY =   391012128.0250                STO-SY =     2046371.4111     STORAGE         
                 WEL =           0.0000                   WEL =           0.0000     WEL_0           
                 DRN =           0.0000                   DRN =           0.0000     DRN_0           
                 RCH =   127091923.3399                   RCH =     1144999.8672     RCH_0           

            TOTAL IN =   518104051.3649              TOTAL IN =     3191371.2783

          OUT:                                     OUT:
          ----                                     ----
              STO-SS =           0.0000                STO-SS =           0.0000     STORAGE         
              STO-SY =    72295542.5176                STO-SY =       34301.1957     STORAGE         
                 WEL =     5586149.8353                   WEL =       45804.3117     WEL_0           
                 DRN =   440222359.0120                   DRN =     3111265.7708     DRN_0           
                 RCH =           0.0000                   RCH =           0.0000     RCH_0           

           TOTAL OUT =   518104051.3649             TOTAL OUT =     3191371.2783

            IN - OUT =       5.1439E-05              IN - OUT =       2.1132E-06

 PERCENT DISCREPANCY =           0.00     PERCENT DISCREPANCY =           0.00




         TIME SUMMARY AT END OF TIME STEP    1 IN STRESS PERIOD  150
                          TIME STEP LENGTH =    1.00000    
                        STRESS PERIOD TIME =    1.00000    
                     TOTAL SIMULATION TIME =    150.000    

end timestep


start timestep kper="151" kstp="1" mode="normal"


 OUTPUT CONTROL FOR STRESS PERIOD 151 IS REPEATED USING SETTINGS FROM A PREVIOUS STRESS PERIOD.


 STRESS PERIOD 151 IS TRANSIENT


 REUSING WELS FROM LAST STRESS PERIOD

 REUSING DRNS FROM LAST STRESS PERIOD

 REUSING RCHS FROM LAST STRESS PERIOD


  VOLUME BUDGET FOR ENTIRE MODEL AT END OF TIME STEP    1, STRESS PERIOD 151
  ---------------------------------------------------------------------------------------------------

     CUMULATIVE VOLUME      L**3       RATES FOR THIS TIME STEP      L**3/T          PACKAGE NAME    
     ------------------                 ------------------------                     ----------------

           IN:                                      IN:
           ---                                      ---
              STO-SS =           0.0000                STO-SS =           0.0000     STORAGE         
              STO-SY =   393030989.0616                STO-SY =     2018861.0366     STORAGE         
                 WEL =           0.0000                   WEL =           0.0000     WEL_0           
                 DRN =           0.0000                   DRN =           0.0000     DRN_0           
                 RCH =   128206467.3662                   RCH =     1114544.0263     RCH_0           

            TOTAL IN =   521237456.4279              TOTAL IN =     3133405.0629

          OUT:                                     OUT:
          ----                                     ----
              STO-SS =           0.0000                STO-SS =           0.0000     STORAGE         
              STO-SY =    72333481.9439                STO-SY =       37939.4263     STORAGE         
                 WEL =     5597557.5880                   WEL =       11407.7527     WEL_0           
                 DRN =   443306416.8959                   DRN =     3084057.8839     DRN_0           
                 RCH =           0.0000                   RCH =           0.0000     RCH_0           

           TOTAL OUT =   521237456.4278             TOTAL OUT =     3133405.0629

            IN - OUT =       5.0902E-05              IN - OUT =      -5.0664E-07

 PERCENT DISCREPANCY =           0.00     PERCENT DISCREPANCY =          -0.00




         TIME SUMMARY AT END OF TIME STEP    1 IN STRESS PERIOD  151
                          TIME STEP LENGTH =    1.00000    
                        STRESS PERIOD TIME =    1.00000    
                     TOTAL SIMULATION TIME =    151.000    

end timestep


start timestep kper="152" kstp="1" mode="normal"


 OUTPUT CONTROL FOR STRESS PERIOD 152 IS REPEATED USING SETTINGS FROM A PREVIOUS STRESS PERIOD.


 STRESS PERIOD 152 IS TRANSIENT


 REUSING WELS FROM LAST STRESS PERIOD

 REUSING DRNS FROM LAST STRESS PERIOD

 REUSING RCHS FROM LAST STRESS PERIOD


  VOLUME BUDGET FOR ENTIRE MODEL AT END OF TIME STEP    1, STRESS PERIOD 152
  ---------------------------------------------------------------------------------------------------

     CUMULATIVE VOLUME      L**3       RATES FOR THIS TIME STEP      L**3/T          PACKAGE NAME    
     ------------------                 ------------------------                     ----------------

           IN:                                      IN:
           ---                                      ---
              STO-SS =           0.0000                STO-SS =           0.0000     STORAGE         
              STO-SY =   398209169.1224                STO-SY =     5178180.0608     STORAGE         
                 WEL =           0.0000                   WEL =           0.0000     WEL_0           
                 DRN =           0.0000                   DRN =           0.0000     DRN_0           
                 RCH =   129326843.5616                   RCH =     1120376.1953     RCH_0           

            TOTAL IN =   527536012.6840              TOTAL IN =     6298556.2561

          OUT:                                     OUT:
          ----                                     ----
              STO-SS =           0.0000                STO-SS =           0.0000     STORAGE         
              STO-SY =    72359713.5001                STO-SY =       26231.5562     STORAGE         
                 WEL =     9892385.9700                   WEL =     4294828.3820     WEL_0           
                 DRN =   445283913.2139                   DRN =     1977496.3180     DRN_0           
                 RCH =           0.0000                   RCH =           0.0000     RCH_0           

           TOTAL OUT =   527536012.6839             TOTAL OUT =     6298556.2561

            IN - OUT =       5.1320E-05              IN - OUT =       4.2189E-07

 PERCENT DISCREPANCY =           0.00     PERCENT DISCREPANCY =           0.00




         TIME SUMMARY AT END OF TIME STEP    1 IN STRESS PERIOD  152
                          TIME STEP LENGTH =    1.00000    
                        STRESS PERIOD TIME =    1.00000    
                     TOTAL SIMULATION TIME =    152.000    

end timestep


start timestep kper="153" kstp="1" mode="normal"


 OUTPUT CONTROL FOR STRESS PERIOD 153 IS REPEATED USING SETTINGS FROM A PREVIOUS STRESS PERIOD.


 STRESS PERIOD 153 IS TRANSIENT


 REUSING WELS FROM LAST STRESS PERIOD

 REUSING DRNS FROM LAST STRESS PERIOD

 REUSING RCHS FROM LAST STRESS PERIOD


  VOLUME BUDGET FOR ENTIRE MODEL AT END OF TIME STEP    1, STRESS PERIOD 153
  ---------------------------------------------------------------------------------------------------

     CUMULATIVE VOLUME      L**3       RATES FOR THIS TIME STEP      L**3/T          PACKAGE NAME    
     ------------------                 ------------------------                     ----------------

           IN:                                      IN:
           ---                                      ---
              STO-SS =           0.0000                STO-SS =           0.0000     STORAGE         
              STO-SY =   401871732.1238                STO-SY =     3662563.0014     STORAGE         
                 WEL =           0.0000                   WEL =           0.0000     WEL_0           
                 DRN =           0.0000                   DRN =           0.0000     DRN_0           
                 RCH =   131279669.0614                   RCH =     1952825.4999     RCH_0           

            TOTAL IN =   533151401.1853              TOTAL IN =     5615388.5013

          OUT:                                     OUT:
          ----                                     ----
              STO-SS =           0.0000                STO-SS =           0.0000     STORAGE         
              STO-SY =    72713604.1119                STO-SY =      353890.6118     STORAGE         
                 WEL =    12140890.0711                   WEL =     2248504.1012     WEL_0           
                 DRN =   448296907.0022                   DRN =     3012993.7883     DRN_0           
                 RCH =           0.0000                   RCH =           0.0000     RCH_0           

           TOTAL OUT =   533151401.1852             TOTAL OUT =     5615388.5013

            IN - OUT =       5.0306E-05              IN - OUT =      -1.0040E-06

 PERCENT DISCREPANCY =           0.00     PERCENT DISCREPANCY =          -0.00




         TIME SUMMARY AT END OF TIME STEP    1 IN STRESS PERIOD  153
                          TIME STEP LENGTH =    1.00000    
                        STRESS PERIOD TIME =    1.00000    
                     TOTAL SIMULATION TIME =    153.000    

end timestep


start timestep kper="154" kstp="1" mode="normal"


 OUTPUT CONTROL FOR STRESS PERIOD 154 IS REPEATED USING SETTINGS FROM A PREVIOUS STRESS PERIOD.


 STRESS PERIOD 154 IS TRANSIENT


 REUSING WELS FROM LAST STRESS PERIOD

 REUSING DRNS FROM LAST STRESS PERIOD

 REUSING RCHS FROM LAST STRESS PERIOD


  VOLUME BUDGET FOR ENTIRE MODEL AT END OF TIME STEP    1, STRESS PERIOD 154
  ---------------------------------------------------------------------------------------------------

     CUMULATIVE VOLUME      L**3       RATES FOR THIS TIME STEP      L**3/T          PACKAGE NAME    
     ------------------                 ------------------------                     ----------------

           IN:                                      IN:
           ---                                      ---
              STO-SS =           0.0000                STO-SS =           0.0000     STORAGE         
              STO-SY =   404845985.8195                STO-SY =     2974253.6957     STORAGE         
                 WEL =           0.0000                   WEL =           0.0000     WEL_0           
                 DRN =           0.0000                   DRN =           0.0000     DRN_0           
                 RCH =   132555680.9807                   RCH =     1276011.9192     RCH_0           

            TOTAL IN =   537401666.8002              TOTAL IN =     4250265.6149

          OUT:                                     OUT:
          ----                                     ----
              STO-SS =           0.0000                STO-SS =           0.0000     STORAGE         
              STO-SY =    72779149.7713                STO-SY =       65545.6594     STORAGE         
                 WEL =    13610874.3340                   WEL =     1469984.2629     WEL_0           
                 DRN =   451011642.6948                   DRN =     2714735.6926     DRN_0           
                 RCH =           0.0000                   RCH =           0.0000     RCH_0           

           TOTAL OUT =   537401666.8001             TOTAL OUT =     4250265.6149

            IN - OUT =       5.1975E-05              IN - OUT =       1.7174E-06

 PERCENT DISCREPANCY =           0.00     PERCENT DISCREPANCY =           0.00




         TIME SUMMARY AT END OF TIME STEP    1 IN STRESS PERIOD  154
                          TIME STEP LENGTH =    1.00000    
                        STRESS PERIOD TIME =    1.00000    
                     TOTAL SIMULATION TIME =    154.000    

end timestep


start timestep kper="155" kstp="1" mode="normal"


 OUTPUT CONTROL FOR STRESS PERIOD 155 IS REPEATED USING SETTINGS FROM A PREVIOUS STRESS PERIOD.


 STRESS PERIOD 155 IS TRANSIENT


 REUSING WELS FROM LAST STRESS PERIOD

 REUSING DRNS FROM LAST STRESS PERIOD

 REUSING RCHS FROM LAST STRESS PERIOD


  VOLUME BUDGET FOR ENTIRE MODEL AT END OF TIME STEP    1, STRESS PERIOD 155
  ---------------------------------------------------------------------------------------------------

     CUMULATIVE VOLUME      L**3       RATES FOR THIS TIME STEP      L**3/T          PACKAGE NAME    
     ------------------                 ------------------------                     ----------------

           IN:                                      IN:
           ---                                      ---
              STO-SS =           0.0000                STO-SS =           0.0000     STORAGE         
              STO-SY =   407733859.2508                STO-SY =     2887873.4313     STORAGE         
                 WEL =           0.0000                   WEL =           0.0000     WEL_0           
                 DRN =           0.0000                   DRN =           0.0000     DRN_0           
                 RCH =   133872352.1942                   RCH =     1316671.2136     RCH_0           

            TOTAL IN =   541606211.4450              TOTAL IN =     4204544.6448

          OUT:                                     OUT:
          ----                                     ----
              STO-SS =           0.0000                STO-SS =           0.0000     STORAGE         
              STO-SY =    72825762.6709                STO-SY =       46612.8996     STORAGE         
                 WEL =    15042833.6775                   WEL =     1431959.3435     WEL_0           
                 DRN =   453737615.0966                   DRN =     2725972.4018     DRN_0           
                 RCH =           0.0000                   RCH =           0.0000     RCH_0           

           TOTAL OUT =   541606211.4450             TOTAL OUT =     4204544.6448

            IN - OUT =       5.4002E-05              IN - OUT =       2.0145E-06

 PERCENT DISCREPANCY =           0.00     PERCENT DISCREPANCY =           0.00




         TIME SUMMARY AT END OF TIME STEP    1 IN STRESS PERIOD  155
                          TIME STEP LENGTH =    1.00000    
                        STRESS PERIOD TIME =    1.00000    
                     TOTAL SIMULATION TIME =    155.000    

end timestep


start timestep kper="156" kstp="1" mode="normal"


 OUTPUT CONTROL FOR STRESS PERIOD 156 IS REPEATED USING SETTINGS FROM A PREVIOUS STRESS PERIOD.


 STRESS PERIOD 156 IS TRANSIENT


 REUSING WELS FROM LAST STRESS PERIOD

 REUSING DRNS FROM LAST STRESS PERIOD

 REUSING RCHS FROM LAST STRESS PERIOD


  VOLUME BUDGET FOR ENTIRE MODEL AT END OF TIME STEP    1, STRESS PERIOD 156
  ---------------------------------------------------------------------------------------------------

     CUMULATIVE VOLUME      L**3       RATES FOR THIS TIME STEP      L**3/T          PACKAGE NAME    
     ------------------                 ------------------------                     ----------------

           IN:                                      IN:
           ---                                      ---
              STO-SS =           0.0000                STO-SS =           0.0000     STORAGE         
              STO-SY =   410582896.6358                STO-SY =     2849037.3851     STORAGE         
                 WEL =           0.0000                   WEL =           0.0000     WEL_0           
                 DRN =           0.0000                   DRN =           0.0000     DRN_0           
                 RCH =   135202607.4497                   RCH =     1330255.2555     RCH_0           

            TOTAL IN =   545785504.0856              TOTAL IN =     4179292.6405

          OUT:                                     OUT:
          ----                                     ----
              STO-SS =           0.0000                STO-SS =           0.0000     STORAGE         
              STO-SY =    72868872.6789                STO-SY =       43110.0080     STORAGE         
                 WEL =    16427003.9070                   WEL =     1384170.2295     WEL_0           
                 DRN =   456489627.4996                   DRN =     2752012.4031     DRN_0           
                 RCH =           0.0000                   RCH =           0.0000     RCH_0           

           TOTAL OUT =   545785504.0855             TOTAL OUT =     4179292.6405

            IN - OUT =       5.5075E-05              IN - OUT =       1.1134E-06

 PERCENT DISCREPANCY =           0.00     PERCENT DISCREPANCY =           0.00




         TIME SUMMARY AT END OF TIME STEP    1 IN STRESS PERIOD  156
                          TIME STEP LENGTH =    1.00000    
                        STRESS PERIOD TIME =    1.00000    
                     TOTAL SIMULATION TIME =    156.000    

end timestep


start timestep kper="157" kstp="1" mode="normal"


 OUTPUT CONTROL FOR STRESS PERIOD 157 IS REPEATED USING SETTINGS FROM A PREVIOUS STRESS PERIOD.


 STRESS PERIOD 157 IS TRANSIENT


 REUSING WELS FROM LAST STRESS PERIOD

 REUSING DRNS FROM LAST STRESS PERIOD

 REUSING RCHS FROM LAST STRESS PERIOD


  VOLUME BUDGET FOR ENTIRE MODEL AT END OF TIME STEP    1, STRESS PERIOD 157
  ---------------------------------------------------------------------------------------------------

     CUMULATIVE VOLUME      L**3       RATES FOR THIS TIME STEP      L**3/T          PACKAGE NAME    
     ------------------                 ------------------------                     ----------------

           IN:                                      IN:
           ---                                      ---
              STO-SS =           0.0000                STO-SS =           0.0000     STORAGE         
              STO-SY =   413393961.3539                STO-SY =     2811064.7180     STORAGE         
                 WEL =           0.0000                   WEL =           0.0000     WEL_0           
                 DRN =           0.0000                   DRN =           0.0000     DRN_0           
                 RCH =   136602834.8974                   RCH =     1400227.4477     RCH_0           

            TOTAL IN =   549996796.2513              TOTAL IN =     4211292.1657

          OUT:                                     OUT:
          ----                                     ----
              STO-SS =           0.0000                STO-SS =           0.0000     STORAGE         
              STO-SY =    72912075.6386                STO-SY =       43202.9597     STORAGE         
                 WEL =    17800821.9980                   WEL =     1373818.0910     WEL_0           
                 DRN =   459283898.6147                   DRN =     2794271.1150     DRN_0           
                 RCH =           0.0000                   RCH =           0.0000     RCH_0           

           TOTAL OUT =   549996796.2513             TOTAL OUT =     4211292.1657

            IN - OUT =       5.5552E-05              IN - OUT =       4.6659E-07

 PERCENT DISCREPANCY =           0.00     PERCENT DISCREPANCY =           0.00




         TIME SUMMARY AT END OF TIME STEP    1 IN STRESS PERIOD  157
                          TIME STEP LENGTH =    1.00000    
                        STRESS PERIOD TIME =    1.00000    
                     TOTAL SIMULATION TIME =    157.000    

end timestep


start timestep kper="158" kstp="1" mode="normal"


 OUTPUT CONTROL FOR STRESS PERIOD 158 IS REPEATED USING SETTINGS FROM A PREVIOUS STRESS PERIOD.


 STRESS PERIOD 158 IS TRANSIENT


 REUSING WELS FROM LAST STRESS PERIOD

 REUSING DRNS FROM LAST STRESS PERIOD

 REUSING RCHS FROM LAST STRESS PERIOD


  VOLUME BUDGET FOR ENTIRE MODEL AT END OF TIME STEP    1, STRESS PERIOD 158
  ---------------------------------------------------------------------------------------------------

     CUMULATIVE VOLUME      L**3       RATES FOR THIS TIME STEP      L**3/T          PACKAGE NAME    
     ------------------                 ------------------------                     ----------------

           IN:                                      IN:
           ---                                      ---
              STO-SS =           0.0000                STO-SS =           0.0000     STORAGE         
              STO-SY =   416146235.2975                STO-SY =     2752273.9436     STORAGE         
                 WEL =           0.0000                   WEL =           0.0000     WEL_0           
                 DRN =           0.0000                   DRN =           0.0000     DRN_0           
                 RCH =   137986874.1069                   RCH =     1384039.2095     RCH_0           

            TOTAL IN =   554133109.4044              TOTAL IN =     4136313.1531

          OUT:                                     OUT:
          ----                                     ----
              STO-SS =           0.0000                STO-SS =           0.0000     STORAGE         
              STO-SY =    72952876.7546                STO-SY =       40801.1160     STORAGE         
                 WEL =    19101642.1108                   WEL =     1300820.1128     WEL_0           
                 DRN =   462078590.5389                   DRN =     2794691.9242     DRN_0           
                 RCH =           0.0000                   RCH =           0.0000     RCH_0           

           TOTAL OUT =   554133109.4043             TOTAL OUT =     4136313.1531

            IN - OUT =       5.5909E-05              IN - OUT =       3.1432E-07

 PERCENT DISCREPANCY =           0.00     PERCENT DISCREPANCY =           0.00




         TIME SUMMARY AT END OF TIME STEP    1 IN STRESS PERIOD  158
                          TIME STEP LENGTH =    1.00000    
                        STRESS PERIOD TIME =    1.00000    
                     TOTAL SIMULATION TIME =    158.000    

end timestep


start timestep kper="159" kstp="1" mode="normal"


 OUTPUT CONTROL FOR STRESS PERIOD 159 IS REPEATED USING SETTINGS FROM A PREVIOUS STRESS PERIOD.


 STRESS PERIOD 159 IS TRANSIENT


 REUSING WELS FROM LAST STRESS PERIOD

 REUSING DRNS FROM LAST STRESS PERIOD

 REUSING RCHS FROM LAST STRESS PERIOD


  VOLUME BUDGET FOR ENTIRE MODEL AT END OF TIME STEP    1, STRESS PERIOD 159
  ---------------------------------------------------------------------------------------------------

     CUMULATIVE VOLUME      L**3       RATES FOR THIS TIME STEP      L**3/T          PACKAGE NAME    
     ------------------                 ------------------------                     ----------------

           IN:                                      IN:
           ---                                      ---
              STO-SS =           0.0000                STO-SS =           0.0000     STORAGE         
              STO-SY =   418872625.1631                STO-SY =     2726389.8657     STORAGE         
                 WEL =           0.0000                   WEL =           0.0000     WEL_0           
                 DRN =           0.0000                   DRN =           0.0000     DRN_0           
                 RCH =   139388633.4076                   RCH =     1401759.3007     RCH_0           

            TOTAL IN =   558261258.5707              TOTAL IN =     4128149.1663

          OUT:                                     OUT:
          ----                                     ----
              STO-SS =           0.0000                STO-SS =           0.0000     STORAGE         
              STO-SY =    72995183.6434                STO-SY =       42306.8887     STORAGE         
                 WEL =    20384081.7161                   WEL =     1282439.6054     WEL_0           
                 DRN =   464881993.2112                   DRN =     2803402.6723     DRN_0           
                 RCH =           0.0000                   RCH =           0.0000     RCH_0           

           TOTAL OUT =   558261258.5706             TOTAL OUT =     4128149.1663

            IN - OUT =       5.5790E-05              IN - OUT =       5.6345E-08

 PERCENT DISCREPANCY =           0.00     PERCENT DISCREPANCY =           0.00




         TIME SUMMARY AT END OF TIME STEP    1 IN STRESS PERIOD  159
                          TIME STEP LENGTH =    1.00000    
                        STRESS PERIOD TIME =    1.00000    
                     TOTAL SIMULATION TIME =    159.000    

end timestep


start timestep kper="160" kstp="1" mode="normal"


 OUTPUT CONTROL FOR STRESS PERIOD 160 IS REPEATED USING SETTINGS FROM A PREVIOUS STRESS PERIOD.


 STRESS PERIOD 160 IS TRANSIENT


 REUSING WELS FROM LAST STRESS PERIOD

 REUSING DRNS FROM LAST STRESS PERIOD

 REUSING RCHS FROM LAST STRESS PERIOD


  VOLUME BUDGET FOR ENTIRE MODEL AT END OF TIME STEP    1, STRESS PERIOD 160
  ---------------------------------------------------------------------------------------------------

     CUMULATIVE VOLUME      L**3       RATES FOR THIS TIME STEP      L**3/T          PACKAGE NAME    
     ------------------                 ------------------------                     ----------------

           IN:                                      IN:
           ---                                      ---
              STO-SS =           0.0000                STO-SS =           0.0000     STORAGE         
              STO-SY =   421669276.1483                STO-SY =     2796650.9852     STORAGE         
                 WEL =           0.0000                   WEL =           0.0000     WEL_0           
                 DRN =           0.0000                   DRN =           0.0000     DRN_0           
                 RCH =   140804793.2671                   RCH =     1416159.8596     RCH_0           

            TOTAL IN =   562474069.4154              TOTAL IN =     4212810.8447

          OUT:                                     OUT:
          ----                                     ----
              STO-SS =           0.0000                STO-SS =           0.0000     STORAGE         
              STO-SY =    73040991.2061                STO-SY =       45807.5627     STORAGE         
                 WEL =    21751080.2734                   WEL =     1366998.5572     WEL_0           
                 DRN =   467681997.9359                   DRN =     2800004.7248     DRN_0           
                 RCH =           0.0000                   RCH =           0.0000     RCH_0           

           TOTAL OUT =   562474069.4154             TOTAL OUT =     4212810.8447

            IN - OUT =       5.4717E-05              IN - OUT =      -1.1902E-06

 PERCENT DISCREPANCY =           0.00     PERCENT DISCREPANCY =          -0.00




         TIME SUMMARY AT END OF TIME STEP    1 IN STRESS PERIOD  160
                          TIME STEP LENGTH =    1.00000    
                        STRESS PERIOD TIME =    1.00000    
                     TOTAL SIMULATION TIME =    160.000    

end timestep


start timestep kper="161" kstp="1" mode="normal"


 OUTPUT CONTROL FOR STRESS PERIOD 161 IS REPEATED USING SETTINGS FROM A PREVIOUS STRESS PERIOD.


 STRESS PERIOD 161 IS TRANSIENT


 REUSING WELS FROM LAST STRESS PERIOD

 REUSING DRNS FROM LAST STRESS PERIOD

 REUSING RCHS FROM LAST STRESS PERIOD


  VOLUME BUDGET FOR ENTIRE MODEL AT END OF TIME STEP    1, STRESS PERIOD 161
  ---------------------------------------------------------------------------------------------------

     CUMULATIVE VOLUME      L**3       RATES FOR THIS TIME STEP      L**3/T          PACKAGE NAME    
     ------------------                 ------------------------                     ----------------

           IN:                                      IN:
           ---                                      ---
              STO-SS =           0.0000                STO-SS =           0.0000     STORAGE         
              STO-SY =   424336106.2075                STO-SY =     2666830.0592     STORAGE         
                 WEL =           0.0000                   WEL =           0.0000     WEL_0           
                 DRN =           0.0000                   DRN =           0.0000     DRN_0           
                 RCH =   142235860.4931                   RCH =     1431067.2260     RCH_0           

            TOTAL IN =   566571966.7007              TOTAL IN =     4097897.2852

          OUT:                                     OUT:
          ----                                     ----
              STO-SS =           0.0000                STO-SS =           0.0000     STORAGE         
              STO-SY =    73083516.6577                STO-SY =       42525.4516     STORAGE         
                 WEL =    22992374.0594                   WEL =     1241293.7861     WEL_0           
                 DRN =   470496075.9835                   DRN =     2814078.0476     DRN_0           
                 RCH =           0.0000                   RCH =           0.0000     RCH_0           

           TOTAL OUT =   566571966.7006             TOTAL OUT =     4097897.2852

            IN - OUT =       5.8174E-05              IN - OUT =       3.4682E-06

 PERCENT DISCREPANCY =           0.00     PERCENT DISCREPANCY =           0.00




         TIME SUMMARY AT END OF TIME STEP    1 IN STRESS PERIOD  161
                          TIME STEP LENGTH =    1.00000    
                        STRESS PERIOD TIME =    1.00000    
                     TOTAL SIMULATION TIME =    161.000    

end timestep


start timestep kper="162" kstp="1" mode="normal"


 OUTPUT CONTROL FOR STRESS PERIOD 162 IS REPEATED USING SETTINGS FROM A PREVIOUS STRESS PERIOD.


 STRESS PERIOD 162 IS TRANSIENT


 REUSING WELS FROM LAST STRESS PERIOD

 REUSING DRNS FROM LAST STRESS PERIOD

 REUSING RCHS FROM LAST STRESS PERIOD


  VOLUME BUDGET FOR ENTIRE MODEL AT END OF TIME STEP    1, STRESS PERIOD 162
  ---------------------------------------------------------------------------------------------------

     CUMULATIVE VOLUME      L**3       RATES FOR THIS TIME STEP      L**3/T          PACKAGE NAME    
     ------------------                 ------------------------                     ----------------

           IN:                                      IN:
           ---                                      ---
              STO-SS =           0.0000                STO-SS =           0.0000     STORAGE         
              STO-SY =   427035771.8210                STO-SY =     2699665.6135     STORAGE         
                 WEL =           0.0000                   WEL =           0.0000     WEL_0           
                 DRN =           0.0000                   DRN =           0.0000     DRN_0           
                 RCH =   143648758.4719                   RCH =     1412897.9787     RCH_0           

            TOTAL IN =   570684530.2929              TOTAL IN =     4112563.5922

          OUT:                                     OUT:
          ----                                     ----
              STO-SS =           0.0000                STO-SS =           0.0000     STORAGE         
              STO-SY =    73126819.6888                STO-SY =       43303.0311     STORAGE         
                 WEL =    24269762.0670                   WEL =     1277388.0076     WEL_0           
                 DRN =   473287948.5370                   DRN =     2791872.5535     DRN_0           
                 RCH =           0.0000                   RCH =           0.0000     RCH_0           

           TOTAL OUT =   570684530.2928             TOTAL OUT =     4112563.5922

            IN - OUT =       6.0797E-05              IN - OUT =       2.5919E-06

 PERCENT DISCREPANCY =           0.00     PERCENT DISCREPANCY =           0.00




         TIME SUMMARY AT END OF TIME STEP    1 IN STRESS PERIOD  162
                          TIME STEP LENGTH =    1.00000    
                        STRESS PERIOD TIME =    1.00000    
                     TOTAL SIMULATION TIME =    162.000    

end timestep


start timestep kper="163" kstp="1" mode="normal"


 OUTPUT CONTROL FOR STRESS PERIOD 163 IS REPEATED USING SETTINGS FROM A PREVIOUS STRESS PERIOD.


 STRESS PERIOD 163 IS TRANSIENT


 REUSING WELS FROM LAST STRESS PERIOD

 REUSING DRNS FROM LAST STRESS PERIOD

 REUSING RCHS FROM LAST STRESS PERIOD


  VOLUME BUDGET FOR ENTIRE MODEL AT END OF TIME STEP    1, STRESS PERIOD 163
  ---------------------------------------------------------------------------------------------------

     CUMULATIVE VOLUME      L**3       RATES FOR THIS TIME STEP      L**3/T          PACKAGE NAME    
     ------------------                 ------------------------                     ----------------

           IN:                                      IN:
           ---                                      ---
              STO-SS =           0.0000                STO-SS =           0.0000     STORAGE         
              STO-SY =   429721299.7559                STO-SY =     2685527.9349     STORAGE         
                 WEL =           0.0000                   WEL =           0.0000     WEL_0           
                 DRN =           0.0000                   DRN =           0.0000     DRN_0           
                 RCH =   145088749.3116                   RCH =     1439990.8397     RCH_0           

            TOTAL IN =   574810049.0675              TOTAL IN =     4125518.7746

          OUT:                                     OUT:
          ----                                     ----
              STO-SS =           0.0000                STO-SS =           0.0000     STORAGE         
              STO-SY =    73174407.0249                STO-SY =       47587.3361     STORAGE         
                 WEL =    25553530.6699                   WEL =     1283768.6028     WEL_0           
                 DRN =   476082111.3727                   DRN =     2794162.8357     DRN_0           
                 RCH =           0.0000                   RCH =           0.0000     RCH_0           

           TOTAL OUT =   574810049.0674             TOTAL OUT =     4125518.7746

            IN - OUT =       6.3062E-05              IN - OUT =       2.3060E-06

 PERCENT DISCREPANCY =           0.00     PERCENT DISCREPANCY =           0.00




         TIME SUMMARY AT END OF TIME STEP    1 IN STRESS PERIOD  163
                          TIME STEP LENGTH =    1.00000    
                        STRESS PERIOD TIME =    1.00000    
                     TOTAL SIMULATION TIME =    163.000    

end timestep


start timestep kper="164" kstp="1" mode="normal"


 OUTPUT CONTROL FOR STRESS PERIOD 164 IS REPEATED USING SETTINGS FROM A PREVIOUS STRESS PERIOD.


 STRESS PERIOD 164 IS TRANSIENT


 REUSING WELS FROM LAST STRESS PERIOD

 REUSING DRNS FROM LAST STRESS PERIOD

 REUSING RCHS FROM LAST STRESS PERIOD


  VOLUME BUDGET FOR ENTIRE MODEL AT END OF TIME STEP    1, STRESS PERIOD 164
  ---------------------------------------------------------------------------------------------------

     CUMULATIVE VOLUME      L**3       RATES FOR THIS TIME STEP      L**3/T          PACKAGE NAME    
     ------------------                 ------------------------                     ----------------

           IN:                                      IN:
           ---                                      ---
              STO-SS =           0.0000                STO-SS =           0.0000     STORAGE         
              STO-SY =   432368295.4112                STO-SY =     2646995.6553     STORAGE         
                 WEL =           0.0000                   WEL =           0.0000     WEL_0           
                 DRN =           0.0000                   DRN =           0.0000     DRN_0           
                 RCH =   146543723.7554                   RCH =     1454974.4439     RCH_0           

            TOTAL IN =   578912019.1666              TOTAL IN =     4101970.0991

          OUT:                                     OUT:
          ----                                     ----
              STO-SS =           0.0000                STO-SS =           0.0000     STORAGE         
              STO-SY =    73220417.7998                STO-SY =       46010.7750     STORAGE         
                 WEL =    26814091.4049                   WEL =     1260560.7350     WEL_0           
                 DRN =   478877509.9618                   DRN =     2795398.5891     DRN_0           
                 RCH =           0.0000                   RCH =           0.0000     RCH_0           

           TOTAL OUT =   578912019.1666             TOTAL OUT =     4101970.0991

            IN - OUT =       6.2704E-05              IN - OUT =      -3.9302E-07

 PERCENT DISCREPANCY =           0.00     PERCENT DISCREPANCY =          -0.00




         TIME SUMMARY AT END OF TIME STEP    1 IN STRESS PERIOD  164
                          TIME STEP LENGTH =    1.00000    
                        STRESS PERIOD TIME =    1.00000    
                     TOTAL SIMULATION TIME =    164.000    

end timestep


start timestep kper="165" kstp="1" mode="normal"


 OUTPUT CONTROL FOR STRESS PERIOD 165 IS REPEATED USING SETTINGS FROM A PREVIOUS STRESS PERIOD.


 STRESS PERIOD 165 IS TRANSIENT


 REUSING WELS FROM LAST STRESS PERIOD

 REUSING DRNS FROM LAST STRESS PERIOD

 REUSING RCHS FROM LAST STRESS PERIOD


  VOLUME BUDGET FOR ENTIRE MODEL AT END OF TIME STEP    1, STRESS PERIOD 165
  ---------------------------------------------------------------------------------------------------

     CUMULATIVE VOLUME      L**3       RATES FOR THIS TIME STEP      L**3/T          PACKAGE NAME    
     ------------------                 ------------------------                     ----------------

           IN:                                      IN:
           ---                                      ---
              STO-SS =           0.0000                STO-SS =           0.0000     STORAGE         
              STO-SY =   434974141.7237                STO-SY =     2605846.3125     STORAGE         
                 WEL =           0.0000                   WEL =           0.0000     WEL_0           
                 DRN =           0.0000                   DRN =           0.0000     DRN_0           
                 RCH =   148005040.0024                   RCH =     1461316.2470     RCH_0           

            TOTAL IN =   582979181.7261              TOTAL IN =     4067162.5595

          OUT:                                     OUT:
          ----                                     ----
              STO-SS =           0.0000                STO-SS =           0.0000     STORAGE         
              STO-SY =    73268230.9682                STO-SY =       47813.1684     STORAGE         
                 WEL =    28032720.6055                   WEL =     1218629.2006     WEL_0           
                 DRN =   481678230.1523                   DRN =     2800720.1905     DRN_0           
                 RCH =           0.0000                   RCH =           0.0000     RCH_0           

           TOTAL OUT =   582979181.7260             TOTAL OUT =     4067162.5595

            IN - OUT =       6.2227E-05              IN - OUT =      -4.6100E-07

 PERCENT DISCREPANCY =           0.00     PERCENT DISCREPANCY =          -0.00




         TIME SUMMARY AT END OF TIME STEP    1 IN STRESS PERIOD  165
                          TIME STEP LENGTH =    1.00000    
                        STRESS PERIOD TIME =    1.00000    
                     TOTAL SIMULATION TIME =    165.000    

end timestep


start timestep kper="166" kstp="1" mode="normal"


 OUTPUT CONTROL FOR STRESS PERIOD 166 IS REPEATED USING SETTINGS FROM A PREVIOUS STRESS PERIOD.


 STRESS PERIOD 166 IS TRANSIENT


 REUSING WELS FROM LAST STRESS PERIOD

 REUSING DRNS FROM LAST STRESS PERIOD

 REUSING RCHS FROM LAST STRESS PERIOD


  VOLUME BUDGET FOR ENTIRE MODEL AT END OF TIME STEP    1, STRESS PERIOD 166
  ---------------------------------------------------------------------------------------------------

     CUMULATIVE VOLUME      L**3       RATES FOR THIS TIME STEP      L**3/T          PACKAGE NAME    
     ------------------                 ------------------------                     ----------------

           IN:                                      IN:
           ---                                      ---
              STO-SS =           0.0000                STO-SS =           0.0000     STORAGE         
              STO-SY =   437544318.1517                STO-SY =     2570176.4280     STORAGE         
                 WEL =           0.0000                   WEL =           0.0000     WEL_0           
                 DRN =           0.0000                   DRN =           0.0000     DRN_0           
                 RCH =   149475505.7152                   RCH =     1470465.7128     RCH_0           

            TOTAL IN =   587019823.8669              TOTAL IN =     4040642.1408

          OUT:                                     OUT:
          ----                                     ----
              STO-SS =           0.0000                STO-SS =           0.0000     STORAGE         
              STO-SY =    73317515.9749                STO-SY =       49285.0066     STORAGE         
                 WEL =    29222603.1838                   WEL =     1189882.5783     WEL_0           
                 DRN =   484479704.7081                   DRN =     2801474.5558     DRN_0           
                 RCH =           0.0000                   RCH =           0.0000     RCH_0           

           TOTAL OUT =   587019823.8668             TOTAL OUT =     4040642.1408

            IN - OUT =       6.2227E-05              IN - OUT =       2.4214E-08

 PERCENT DISCREPANCY =           0.00     PERCENT DISCREPANCY =           0.00




         TIME SUMMARY AT END OF TIME STEP    1 IN STRESS PERIOD  166
                          TIME STEP LENGTH =    1.00000    
                        STRESS PERIOD TIME =    1.00000    
                     TOTAL SIMULATION TIME =    166.000    

end timestep


start timestep kper="167" kstp="1" mode="normal"


 OUTPUT CONTROL FOR STRESS PERIOD 167 IS REPEATED USING SETTINGS FROM A PREVIOUS STRESS PERIOD.


 STRESS PERIOD 167 IS TRANSIENT


 REUSING WELS FROM LAST STRESS PERIOD

 REUSING DRNS FROM LAST STRESS PERIOD

 REUSING RCHS FROM LAST STRESS PERIOD


  VOLUME BUDGET FOR ENTIRE MODEL AT END OF TIME STEP    1, STRESS PERIOD 167
  ---------------------------------------------------------------------------------------------------

     CUMULATIVE VOLUME      L**3       RATES FOR THIS TIME STEP      L**3/T          PACKAGE NAME    
     ------------------                 ------------------------                     ----------------

           IN:                                      IN:
           ---                                      ---
              STO-SS =           0.0000                STO-SS =           0.0000     STORAGE         
              STO-SY =   440079294.4095                STO-SY =     2534976.2578     STORAGE         
                 WEL =           0.0000                   WEL =           0.0000     WEL_0           
                 DRN =           0.0000                   DRN =           0.0000     DRN_0           
                 RCH =   150998280.2859                   RCH =     1522774.5706     RCH_0           

            TOTAL IN =   591077574.6954              TOTAL IN =     4057750.8285

          OUT:                                     OUT:
          ----                                     ----
              STO-SS =           0.0000                STO-SS =           0.0000     STORAGE         
              STO-SY =    73373337.8250                STO-SY =       55821.8501     STORAGE         
                 WEL =    30397718.6247                   WEL =     1175115.4408     WEL_0           
                 DRN =   487306518.2456                   DRN =     2826813.5375     DRN_0           
                 RCH =           0.0000                   RCH =           0.0000     RCH_0           

           TOTAL OUT =   591077574.6953             TOTAL OUT =     4057750.8285

            IN - OUT =       6.0439E-05              IN - OUT =      -1.7956E-06

 PERCENT DISCREPANCY =           0.00     PERCENT DISCREPANCY =          -0.00




         TIME SUMMARY AT END OF TIME STEP    1 IN STRESS PERIOD  167
                          TIME STEP LENGTH =    1.00000    
                        STRESS PERIOD TIME =    1.00000    
                     TOTAL SIMULATION TIME =    167.000    

end timestep


start timestep kper="168" kstp="1" mode="normal"


 OUTPUT CONTROL FOR STRESS PERIOD 168 IS REPEATED USING SETTINGS FROM A PREVIOUS STRESS PERIOD.


 STRESS PERIOD 168 IS TRANSIENT


 REUSING WELS FROM LAST STRESS PERIOD

 REUSING DRNS FROM LAST STRESS PERIOD

 REUSING RCHS FROM LAST STRESS PERIOD


  VOLUME BUDGET FOR ENTIRE MODEL AT END OF TIME STEP    1, STRESS PERIOD 168
  ---------------------------------------------------------------------------------------------------

     CUMULATIVE VOLUME      L**3       RATES FOR THIS TIME STEP      L**3/T          PACKAGE NAME    
     ------------------                 ------------------------                     ----------------

           IN:                                      IN:
           ---                                      ---
              STO-SS =           0.0000                STO-SS =           0.0000     STORAGE         
              STO-SY =   442687280.8759                STO-SY =     2607986.4664     STORAGE         
                 WEL =           0.0000                   WEL =           0.0000     WEL_0           
                 DRN =           0.0000                   DRN =           0.0000     DRN_0           
                 RCH =   152519433.5801                   RCH =     1521153.2943     RCH_0           

            TOTAL IN =   595206714.4560              TOTAL IN =     4129139.7606

          OUT:                                     OUT:
          ----                                     ----
              STO-SS =           0.0000                STO-SS =           0.0000     STORAGE         
              STO-SY =    73428435.1238                STO-SY =       55097.2988     STORAGE         
                 WEL =    31651743.0958                   WEL =     1254024.4712     WEL_0           
                 DRN =   490126536.2363                   DRN =     2820017.9907     DRN_0           
                 RCH =           0.0000                   RCH =           0.0000     RCH_0           

           TOTAL OUT =   595206714.4559             TOTAL OUT =     4129139.7606

            IN - OUT =       6.2346E-05              IN - OUT =       2.0452E-06

 PERCENT DISCREPANCY =           0.00     PERCENT DISCREPANCY =           0.00




         TIME SUMMARY AT END OF TIME STEP    1 IN STRESS PERIOD  168
                          TIME STEP LENGTH =    1.00000    
                        STRESS PERIOD TIME =    1.00000    
                     TOTAL SIMULATION TIME =    168.000    

end timestep


start timestep kper="169" kstp="1" mode="normal"


 OUTPUT CONTROL FOR STRESS PERIOD 169 IS REPEATED USING SETTINGS FROM A PREVIOUS STRESS PERIOD.


 STRESS PERIOD 169 IS TRANSIENT


 REUSING WELS FROM LAST STRESS PERIOD

 REUSING DRNS FROM LAST STRESS PERIOD

 REUSING RCHS FROM LAST STRESS PERIOD


  VOLUME BUDGET FOR ENTIRE MODEL AT END OF TIME STEP    1, STRESS PERIOD 169
  ---------------------------------------------------------------------------------------------------

     CUMULATIVE VOLUME      L**3       RATES FOR THIS TIME STEP      L**3/T          PACKAGE NAME    
     ------------------                 ------------------------                     ----------------

           IN:                                      IN:
           ---                                      ---
              STO-SS =           0.0000                STO-SS =           0.0000     STORAGE         
              STO-SY =   445320579.8357                STO-SY =     2633298.9599     STORAGE         
                 WEL =           0.0000                   WEL =           0.0000     WEL_0           
                 DRN =           0.0000                   DRN =           0.0000     DRN_0           
                 RCH =   154059729.3000                   RCH =     1540295.7199     RCH_0           

            TOTAL IN =   599380309.1357              TOTAL IN =     4173594.6797

          OUT:                                     OUT:
          ----                                     ----
              STO-SS =           0.0000                STO-SS =           0.0000     STORAGE         
              STO-SY =    73490328.8214                STO-SY =       61893.6976     STORAGE         
                 WEL =    32956256.5677                   WEL =     1304513.4719     WEL_0           
                 DRN =   492933723.7466                   DRN =     2807187.5103     DRN_0           
                 RCH =           0.0000                   RCH =           0.0000     RCH_0           

           TOTAL OUT =   599380309.1357             TOTAL OUT =     4173594.6797

            IN - OUT =       6.3658E-05              IN - OUT =       1.2591E-06

 PERCENT DISCREPANCY =           0.00     PERCENT DISCREPANCY =           0.00




         TIME SUMMARY AT END OF TIME STEP    1 IN STRESS PERIOD  169
                          TIME STEP LENGTH =    1.00000    
                        STRESS PERIOD TIME =    1.00000    
                     TOTAL SIMULATION TIME =    169.000    

end timestep


start timestep kper="170" kstp="1" mode="normal"


 OUTPUT CONTROL FOR STRESS PERIOD 170 IS REPEATED USING SETTINGS FROM A PREVIOUS STRESS PERIOD.


 STRESS PERIOD 170 IS TRANSIENT


 REUSING WELS FROM LAST STRESS PERIOD

 REUSING DRNS FROM LAST STRESS PERIOD

 REUSING RCHS FROM LAST STRESS PERIOD


  VOLUME BUDGET FOR ENTIRE MODEL AT END OF TIME STEP    1, STRESS PERIOD 170
  ---------------------------------------------------------------------------------------------------

     CUMULATIVE VOLUME      L**3       RATES FOR THIS TIME STEP      L**3/T          PACKAGE NAME    
     ------------------                 ------------------------                     ----------------

           IN:                                      IN:
           ---                                      ---
              STO-SS =           0.0000                STO-SS =           0.0000     STORAGE         
              STO-SY =   447843861.6056                STO-SY =     2523281.7698     STORAGE         
                 WEL =           0.0000                   WEL =           0.0000     WEL_0           
                 DRN =           0.0000                   DRN =           0.0000     DRN_0           
                 RCH =   155625544.2897                   RCH =     1565814.9897     RCH_0           

            TOTAL IN =   603469405.8953              TOTAL IN =     4089096.7595

          OUT:                                     OUT:
          ----                                     ----
              STO-SS =           0.0000                STO-SS =           0.0000     STORAGE         
              STO-SY =    73553352.3205                STO-SY =       63023.4992     STORAGE         
                 WEL =    34171590.3897                   WEL =     1215333.8220     WEL_0           
                 DRN =   495744463.1849                   DRN =     2810739.4383     DRN_0           
                 RCH =           0.0000                   RCH =           0.0000     RCH_0           

           TOTAL OUT =   603469405.8952             TOTAL OUT =     4089096.7595

            IN - OUT =       6.4969E-05              IN - OUT =       1.3052E-06

 PERCENT DISCREPANCY =           0.00     PERCENT DISCREPANCY =           0.00




         TIME SUMMARY AT END OF TIME STEP    1 IN STRESS PERIOD  170
                          TIME STEP LENGTH =    1.00000    
                        STRESS PERIOD TIME =    1.00000    
                     TOTAL SIMULATION TIME =    170.000    

end timestep


start timestep kper="171" kstp="1" mode="normal"


 OUTPUT CONTROL FOR STRESS PERIOD 171 IS REPEATED USING SETTINGS FROM A PREVIOUS STRESS PERIOD.


 STRESS PERIOD 171 IS TRANSIENT


 REUSING WELS FROM LAST STRESS PERIOD

 REUSING DRNS FROM LAST STRESS PERIOD

 REUSING RCHS FROM LAST STRESS PERIOD


  VOLUME BUDGET FOR ENTIRE MODEL AT END OF TIME STEP    1, STRESS PERIOD 171
  ---------------------------------------------------------------------------------------------------

     CUMULATIVE VOLUME      L**3       RATES FOR THIS TIME STEP      L**3/T          PACKAGE NAME    
     ------------------                 ------------------------                     ----------------

           IN:                                      IN:
           ---                                      ---
              STO-SS =           0.0000                STO-SS =           0.0000     STORAGE         
              STO-SY =   450326862.7574                STO-SY =     2483001.1518     STORAGE         
                 WEL =           0.0000                   WEL =           0.0000     WEL_0           
                 DRN =           0.0000                   DRN =           0.0000     DRN_0           
                 RCH =   157210678.7833                   RCH =     1585134.4936     RCH_0           

            TOTAL IN =   607537541.5407              TOTAL IN =     4068135.6454

          OUT:                                     OUT:
          ----                                     ----
              STO-SS =           0.0000                STO-SS =           0.0000     STORAGE         
              STO-SY =    73621994.6118                STO-SY =       68642.2913     STORAGE         
                 WEL =    35347175.3824                   WEL =     1175584.9926     WEL_0           
                 DRN =   498568371.5464                   DRN =     2823908.3615     DRN_0           
                 RCH =           0.0000                   RCH =           0.0000     RCH_0           

           TOTAL OUT =   607537541.5406             TOTAL OUT =     4068135.6454

            IN - OUT =       6.7115E-05              IN - OUT =       2.2519E-06

 PERCENT DISCREPANCY =           0.00     PERCENT DISCREPANCY =           0.00




         TIME SUMMARY AT END OF TIME STEP    1 IN STRESS PERIOD  171
                          TIME STEP LENGTH =    1.00000    
                        STRESS PERIOD TIME =    1.00000    
                     TOTAL SIMULATION TIME =    171.000    

end timestep


start timestep kper="172" kstp="1" mode="normal"


 OUTPUT CONTROL FOR STRESS PERIOD 172 IS REPEATED USING SETTINGS FROM A PREVIOUS STRESS PERIOD.


 STRESS PERIOD 172 IS TRANSIENT


 REUSING WELS FROM LAST STRESS PERIOD

 REUSING DRNS FROM LAST STRESS PERIOD

 REUSING RCHS FROM LAST STRESS PERIOD


  VOLUME BUDGET FOR ENTIRE MODEL AT END OF TIME STEP    1, STRESS PERIOD 172
  ---------------------------------------------------------------------------------------------------

     CUMULATIVE VOLUME      L**3       RATES FOR THIS TIME STEP      L**3/T          PACKAGE NAME    
     ------------------                 ------------------------                     ----------------

           IN:                                      IN:
           ---                                      ---
              STO-SS =           0.0000                STO-SS =           0.0000     STORAGE         
              STO-SY =   452765820.8861                STO-SY =     2438958.1287     STORAGE         
                 WEL =           0.0000                   WEL =           0.0000     WEL_0           
                 DRN =           0.0000                   DRN =           0.0000     DRN_0           
                 RCH =   158820757.3112                   RCH =     1610078.5279     RCH_0           

            TOTAL IN =   611586578.1972              TOTAL IN =     4049036.6566

          OUT:                                     OUT:
          ----                                     ----
              STO-SS =           0.0000                STO-SS =           0.0000     STORAGE         
              STO-SY =    73696488.4971                STO-SY =       74493.8853     STORAGE         
                 WEL =    36483139.6335                   WEL =     1135964.2511     WEL_0           
                 DRN =   501406950.0666                   DRN =     2838578.5202     DRN_0           
                 RCH =           0.0000                   RCH =           0.0000     RCH_0           

           TOTAL OUT =   611586578.1972             TOTAL OUT =     4049036.6566

            IN - OUT =       6.7711E-05              IN - OUT =       5.3272E-07

 PERCENT DISCREPANCY =           0.00     PERCENT DISCREPANCY =           0.00




         TIME SUMMARY AT END OF TIME STEP    1 IN STRESS PERIOD  172
                          TIME STEP LENGTH =    1.00000    
                        STRESS PERIOD TIME =    1.00000    
                     TOTAL SIMULATION TIME =    172.000    

end timestep


start timestep kper="173" kstp="1" mode="normal"


 OUTPUT CONTROL FOR STRESS PERIOD 173 IS REPEATED USING SETTINGS FROM A PREVIOUS STRESS PERIOD.


 STRESS PERIOD 173 IS TRANSIENT


 REUSING WELS FROM LAST STRESS PERIOD

 REUSING DRNS FROM LAST STRESS PERIOD

 REUSING RCHS FROM LAST STRESS PERIOD


  VOLUME BUDGET FOR ENTIRE MODEL AT END OF TIME STEP    1, STRESS PERIOD 173
  ---------------------------------------------------------------------------------------------------

     CUMULATIVE VOLUME      L**3       RATES FOR THIS TIME STEP      L**3/T          PACKAGE NAME    
     ------------------                 ------------------------                     ----------------

           IN:                                      IN:
           ---                                      ---
              STO-SS =           0.0000                STO-SS =           0.0000     STORAGE         
              STO-SY =   455258048.9094                STO-SY =     2492228.0234     STORAGE         
                 WEL =           0.0000                   WEL =           0.0000     WEL_0           
                 DRN =           0.0000                   DRN =           0.0000     DRN_0           
                 RCH =   160432308.8508                   RCH =     1611551.5397     RCH_0           

            TOTAL IN =   615690357.7603              TOTAL IN =     4103779.5630

          OUT:                                     OUT:
          ----                                     ----
              STO-SS =           0.0000                STO-SS =           0.0000     STORAGE         
              STO-SY =    73776727.6232                STO-SY =       80239.1260     STORAGE         
                 WEL =    37686015.3139                   WEL =     1202875.6804     WEL_0           
                 DRN =   504227614.8232                   DRN =     2820664.7566     DRN_0           
                 RCH =           0.0000                   RCH =           0.0000     RCH_0           

           TOTAL OUT =   615690357.7602             TOTAL OUT =     4103779.5630

            IN - OUT =       6.9857E-05              IN - OUT =       2.1914E-06

 PERCENT DISCREPANCY =           0.00     PERCENT DISCREPANCY =           0.00




         TIME SUMMARY AT END OF TIME STEP    1 IN STRESS PERIOD  173
                          TIME STEP LENGTH =    1.00000    
                        STRESS PERIOD TIME =    1.00000    
                     TOTAL SIMULATION TIME =    173.000    

end timestep


start timestep kper="174" kstp="1" mode="normal"


 OUTPUT CONTROL FOR STRESS PERIOD 174 IS REPEATED USING SETTINGS FROM A PREVIOUS STRESS PERIOD.


 STRESS PERIOD 174 IS TRANSIENT


 REUSING WELS FROM LAST STRESS PERIOD

 REUSING DRNS FROM LAST STRESS PERIOD

 REUSING RCHS FROM LAST STRESS PERIOD


  VOLUME BUDGET FOR ENTIRE MODEL AT END OF TIME STEP    1, STRESS PERIOD 174
  ---------------------------------------------------------------------------------------------------

     CUMULATIVE VOLUME      L**3       RATES FOR THIS TIME STEP      L**3/T          PACKAGE NAME    
     ------------------                 ------------------------                     ----------------

           IN:                                      IN:
           ---                                      ---
              STO-SS =           0.0000                STO-SS =           0.0000     STORAGE         
              STO-SY =   457676924.3640                STO-SY =     2418875.4545     STORAGE         
                 WEL =           0.0000                   WEL =           0.0000     WEL_0           
                 DRN =           0.0000                   DRN =           0.0000     DRN_0           
                 RCH =   162078276.9109                   RCH =     1645968.0601     RCH_0           

            TOTAL IN =   619755201.2749              TOTAL IN =     4064843.5146

          OUT:                                     OUT:
          ----                                     ----
              STO-SS =           0.0000                STO-SS =           0.0000     STORAGE         
              STO-SY =    73866870.0495                STO-SY =       90142.4263     STORAGE         
                 WEL =    38828513.1772                   WEL =     1142497.8633     WEL_0           
                 DRN =   507059818.0481                   DRN =     2832203.2249     DRN_0           
                 RCH =           0.0000                   RCH =           0.0000     RCH_0           

           TOTAL OUT =   619755201.2748             TOTAL OUT =     4064843.5146

            IN - OUT =       7.3791E-05              IN - OUT =       3.8487E-06

 PERCENT DISCREPANCY =           0.00     PERCENT DISCREPANCY =           0.00




         TIME SUMMARY AT END OF TIME STEP    1 IN STRESS PERIOD  174
                          TIME STEP LENGTH =    1.00000    
                        STRESS PERIOD TIME =    1.00000    
                     TOTAL SIMULATION TIME =    174.000    

end timestep


start timestep kper="175" kstp="1" mode="normal"


 OUTPUT CONTROL FOR STRESS PERIOD 175 IS REPEATED USING SETTINGS FROM A PREVIOUS STRESS PERIOD.


 STRESS PERIOD 175 IS TRANSIENT


 REUSING WELS FROM LAST STRESS PERIOD

 REUSING DRNS FROM LAST STRESS PERIOD

 REUSING RCHS FROM LAST STRESS PERIOD


  VOLUME BUDGET FOR ENTIRE MODEL AT END OF TIME STEP    1, STRESS PERIOD 175
  ---------------------------------------------------------------------------------------------------

     CUMULATIVE VOLUME      L**3       RATES FOR THIS TIME STEP      L**3/T          PACKAGE NAME    
     ------------------                 ------------------------                     ----------------

           IN:                                      IN:
           ---                                      ---
              STO-SS =           0.0000                STO-SS =           0.0000     STORAGE         
              STO-SY =   460186660.8858                STO-SY =     2509736.5218     STORAGE         
                 WEL =           0.0000                   WEL =           0.0000     WEL_0           
                 DRN =           0.0000                   DRN =           0.0000     DRN_0           
                 RCH =   163738155.1374                   RCH =     1659878.2265     RCH_0           

            TOTAL IN =   623924816.0232              TOTAL IN =     4169614.7483

          OUT:                                     OUT:
          ----                                     ----
              STO-SS =           0.0000                STO-SS =           0.0000     STORAGE         
              STO-SY =    73961176.7270                STO-SY =       94306.6775     STORAGE         
                 WEL =    40075901.3548                   WEL =     1247388.1776     WEL_0           
                 DRN =   509887737.9413                   DRN =     2827919.8932     DRN_0           
                 RCH =           0.0000                   RCH =           0.0000     RCH_0           

           TOTAL OUT =   623924816.0231             TOTAL OUT =     4169614.7483

            IN - OUT =       7.3552E-05              IN - OUT =      -2.1374E-07

 PERCENT DISCREPANCY =           0.00     PERCENT DISCREPANCY =          -0.00




         TIME SUMMARY AT END OF TIME STEP    1 IN STRESS PERIOD  175
                          TIME STEP LENGTH =    1.00000    
                        STRESS PERIOD TIME =    1.00000    
                     TOTAL SIMULATION TIME =    175.000    

end timestep


start timestep kper="176" kstp="1" mode="normal"


 OUTPUT CONTROL FOR STRESS PERIOD 176 IS REPEATED USING SETTINGS FROM A PREVIOUS STRESS PERIOD.


 STRESS PERIOD 176 IS TRANSIENT


 REUSING WELS FROM LAST STRESS PERIOD

 REUSING DRNS FROM LAST STRESS PERIOD

 REUSING RCHS FROM LAST STRESS PERIOD


  VOLUME BUDGET FOR ENTIRE MODEL AT END OF TIME STEP    1, STRESS PERIOD 176
  ---------------------------------------------------------------------------------------------------

     CUMULATIVE VOLUME      L**3       RATES FOR THIS TIME STEP      L**3/T          PACKAGE NAME    
     ------------------                 ------------------------                     ----------------

           IN:                                      IN:
           ---                                      ---
              STO-SS =           0.0000                STO-SS =           0.0000     STORAGE         
              STO-SY =   462607268.0789                STO-SY =     2420607.1931     STORAGE         
                 WEL =           0.0000                   WEL =           0.0000     WEL_0           
                 DRN =           0.0000                   DRN =           0.0000     DRN_0           
                 RCH =   165393607.5309                   RCH =     1655452.3935     RCH_0           

            TOTAL IN =   628000875.6098              TOTAL IN =     4076059.5866

          OUT:                                     OUT:
          ----                                     ----
              STO-SS =           0.0000                STO-SS =           0.0000     STORAGE         
              STO-SY =    74049126.0489                STO-SY =       87949.3219     STORAGE         
                 WEL =    41243287.5088                   WEL =     1167386.1540     WEL_0           
                 DRN =   512708462.0520                   DRN =     2820724.1107     DRN_0           
                 RCH =           0.0000                   RCH =           0.0000     RCH_0           

           TOTAL OUT =   628000875.6097             TOTAL OUT =     4076059.5866

            IN - OUT =       7.4267E-05              IN - OUT =       7.2177E-07

 PERCENT DISCREPANCY =           0.00     PERCENT DISCREPANCY =           0.00




         TIME SUMMARY AT END OF TIME STEP    1 IN STRESS PERIOD  176
                          TIME STEP LENGTH =    1.00000    
                        STRESS PERIOD TIME =    1.00000    
                     TOTAL SIMULATION TIME =    176.000    

end timestep


start timestep kper="177" kstp="1" mode="normal"


 OUTPUT CONTROL FOR STRESS PERIOD 177 IS REPEATED USING SETTINGS FROM A PREVIOUS STRESS PERIOD.


 STRESS PERIOD 177 IS TRANSIENT


 REUSING WELS FROM LAST STRESS PERIOD

 REUSING DRNS FROM LAST STRESS PERIOD

 REUSING RCHS FROM LAST STRESS PERIOD


  VOLUME BUDGET FOR ENTIRE MODEL AT END OF TIME STEP    1, STRESS PERIOD 177
  ---------------------------------------------------------------------------------------------------

     CUMULATIVE VOLUME      L**3       RATES FOR THIS TIME STEP      L**3/T          PACKAGE NAME    
     ------------------                 ------------------------                     ----------------

           IN:                                      IN:
           ---                                      ---
              STO-SS =           0.0000                STO-SS =           0.0000     STORAGE         
              STO-SY =   464974201.2581                STO-SY =     2366933.1792     STORAGE         
                 WEL =           0.0000                   WEL =           0.0000     WEL_0           
                 DRN =           0.0000                   DRN =           0.0000     DRN_0           
                 RCH =   167084912.5961                   RCH =     1691305.0652     RCH_0           

            TOTAL IN =   632059113.8542              TOTAL IN =     4058238.2444

          OUT:                                     OUT:
          ----                                     ----
              STO-SS =           0.0000                STO-SS =           0.0000     STORAGE         
              STO-SY =    74141780.4163                STO-SY =       92654.3673     STORAGE         
                 WEL =    42353374.2496                   WEL =     1110086.7408     WEL_0           
                 DRN =   515563959.1882                   DRN =     2855497.1362     DRN_0           
                 RCH =           0.0000                   RCH =           0.0000     RCH_0           

           TOTAL OUT =   632059113.8541             TOTAL OUT =     4058238.2444

            IN - OUT =       7.2837E-05              IN - OUT =      -1.3141E-06

 PERCENT DISCREPANCY =           0.00     PERCENT DISCREPANCY =          -0.00




         TIME SUMMARY AT END OF TIME STEP    1 IN STRESS PERIOD  177
                          TIME STEP LENGTH =    1.00000    
                        STRESS PERIOD TIME =    1.00000    
                     TOTAL SIMULATION TIME =    177.000    

end timestep


start timestep kper="178" kstp="1" mode="normal"


 OUTPUT CONTROL FOR STRESS PERIOD 178 IS REPEATED USING SETTINGS FROM A PREVIOUS STRESS PERIOD.


 STRESS PERIOD 178 IS TRANSIENT


 REUSING WELS FROM LAST STRESS PERIOD

 REUSING DRNS FROM LAST STRESS PERIOD

 REUSING RCHS FROM LAST STRESS PERIOD


  VOLUME BUDGET FOR ENTIRE MODEL AT END OF TIME STEP    1, STRESS PERIOD 178
  ---------------------------------------------------------------------------------------------------

     CUMULATIVE VOLUME      L**3       RATES FOR THIS TIME STEP      L**3/T          PACKAGE NAME    
     ------------------                 ------------------------                     ----------------

           IN:                                      IN:
           ---                                      ---
              STO-SS =           0.0000                STO-SS =           0.0000     STORAGE         
              STO-SY =   467356766.5828                STO-SY =     2382565.3247     STORAGE         
                 WEL =           0.0000                   WEL =           0.0000     WEL_0           
                 DRN =           0.0000                   DRN =           0.0000     DRN_0           
                 RCH =   168774433.5139                   RCH =     1689520.9178     RCH_0           

            TOTAL IN =   636131200.0967              TOTAL IN =     4072086.2425

          OUT:                                     OUT:
          ----                                     ----
              STO-SS =           0.0000                STO-SS =           0.0000     STORAGE         
              STO-SY =    74241334.7982                STO-SY =       99554.3819     STORAGE         
                 WEL =    43500185.0859                   WEL =     1146810.8363     WEL_0           
                 DRN =   518389680.2125                   DRN =     2825721.0243     DRN_0           
                 RCH =           0.0000                   RCH =           0.0000     RCH_0           

           TOTAL OUT =   636131200.0966             TOTAL OUT =     4072086.2425

            IN - OUT =       7.4267E-05              IN - OUT =       1.4552E-06

 PERCENT DISCREPANCY =           0.00     PERCENT DISCREPANCY =           0.00




         TIME SUMMARY AT END OF TIME STEP    1 IN STRESS PERIOD  178
                          TIME STEP LENGTH =    1.00000    
                        STRESS PERIOD TIME =    1.00000    
                     TOTAL SIMULATION TIME =    178.000    

end timestep


start timestep kper="179" kstp="1" mode="normal"


 OUTPUT CONTROL FOR STRESS PERIOD 179 IS REPEATED USING SETTINGS FROM A PREVIOUS STRESS PERIOD.


 STRESS PERIOD 179 IS TRANSIENT


 REUSING WELS FROM LAST STRESS PERIOD

 REUSING DRNS FROM LAST STRESS PERIOD

 REUSING RCHS FROM LAST STRESS PERIOD


  VOLUME BUDGET FOR ENTIRE MODEL AT END OF TIME STEP    1, STRESS PERIOD 179
  ---------------------------------------------------------------------------------------------------

     CUMULATIVE VOLUME      L**3       RATES FOR THIS TIME STEP      L**3/T          PACKAGE NAME    
     ------------------                 ------------------------                     ----------------

           IN:                                      IN:
           ---                                      ---
              STO-SS =           0.0000                STO-SS =           0.0000     STORAGE         
              STO-SY =   469867033.6286                STO-SY =     2510267.0458     STORAGE         
                 WEL =           0.0000                   WEL =           0.0000     WEL_0           
                 DRN =           0.0000                   DRN =           0.0000     DRN_0           
                 RCH =   170498732.2295                   RCH =     1724298.7156     RCH_0           

            TOTAL IN =   640365765.8581              TOTAL IN =     4234565.7614

          OUT:                                     OUT:
          ----                                     ----
              STO-SS =           0.0000                STO-SS =           0.0000     STORAGE         
              STO-SY =    74343492.3196                STO-SY =      102157.5215     STORAGE         
                 WEL =    44807033.7109                   WEL =     1306848.6250     WEL_0           
                 DRN =   521215239.8275                   DRN =     2825559.6150     DRN_0           
                 RCH =           0.0000                   RCH =           0.0000     RCH_0           

           TOTAL OUT =   640365765.8580             TOTAL OUT =     4234565.7614

            IN - OUT =       7.2956E-05              IN - OUT =      -1.3914E-06

 PERCENT DISCREPANCY =           0.00     PERCENT DISCREPANCY =          -0.00




         TIME SUMMARY AT END OF TIME STEP    1 IN STRESS PERIOD  179
                          TIME STEP LENGTH =    1.00000    
                        STRESS PERIOD TIME =    1.00000    
                     TOTAL SIMULATION TIME =    179.000    

end timestep


start timestep kper="180" kstp="1" mode="normal"


 OUTPUT CONTROL FOR STRESS PERIOD 180 IS REPEATED USING SETTINGS FROM A PREVIOUS STRESS PERIOD.


 STRESS PERIOD 180 IS TRANSIENT


 REUSING WELS FROM LAST STRESS PERIOD

 REUSING DRNS FROM LAST STRESS PERIOD

 REUSING RCHS FROM LAST STRESS PERIOD


  VOLUME BUDGET FOR ENTIRE MODEL AT END OF TIME STEP    1, STRESS PERIOD 180
  ---------------------------------------------------------------------------------------------------

     CUMULATIVE VOLUME      L**3       RATES FOR THIS TIME STEP      L**3/T          PACKAGE NAME    
     ------------------                 ------------------------                     ----------------

           IN:                                      IN:
           ---                                      ---
              STO-SS =           0.0000                STO-SS =           0.0000     STORAGE         
              STO-SY =   472235363.0600                STO-SY =     2368329.4315     STORAGE         
                 WEL =           0.0000                   WEL =           0.0000     WEL_0           
                 DRN =           0.0000                   DRN =           0.0000     DRN_0           
                 RCH =   172206080.3232                   RCH =     1707348.0936     RCH_0           

            TOTAL IN =   644441443.3832              TOTAL IN =     4075677.5251

          OUT:                                     OUT:
          ----                                     ----
              STO-SS =           0.0000                STO-SS =           0.0000     STORAGE         
              STO-SY =    74447393.8288                STO-SY =      103901.5092     STORAGE         
                 WEL =    45957006.1199                   WEL =     1149972.4090     WEL_0           
                 DRN =   524037043.4344                   DRN =     2821803.6069     DRN_0           
                 RCH =           0.0000                   RCH =           0.0000     RCH_0           

           TOTAL OUT =   644441443.3831             TOTAL OUT =     4075677.5251

            IN - OUT =       7.3791E-05              IN - OUT =       8.3260E-07

 PERCENT DISCREPANCY =           0.00     PERCENT DISCREPANCY =           0.00




         TIME SUMMARY AT END OF TIME STEP    1 IN STRESS PERIOD  180
                          TIME STEP LENGTH =    1.00000    
                        STRESS PERIOD TIME =    1.00000    
                     TOTAL SIMULATION TIME =    180.000    

end timestep


start timestep kper="181" kstp="1" mode="normal"


 OUTPUT CONTROL FOR STRESS PERIOD 181 IS REPEATED USING SETTINGS FROM A PREVIOUS STRESS PERIOD.


 STRESS PERIOD 181 IS TRANSIENT


 REUSING WELS FROM LAST STRESS PERIOD

 REUSING DRNS FROM LAST STRESS PERIOD

 REUSING RCHS FROM LAST STRESS PERIOD


  VOLUME BUDGET FOR ENTIRE MODEL AT END OF TIME STEP    1, STRESS PERIOD 181
  ---------------------------------------------------------------------------------------------------

     CUMULATIVE VOLUME      L**3       RATES FOR THIS TIME STEP      L**3/T          PACKAGE NAME    
     ------------------                 ------------------------                     ----------------

           IN:                                      IN:
           ---                                      ---
              STO-SS =           0.0000                STO-SS =           0.0000     STORAGE         
              STO-SY =   474582783.3596                STO-SY =     2347420.2995     STORAGE         
                 WEL =           0.0000                   WEL =           0.0000     WEL_0           
                 DRN =           0.0000                   DRN =           0.0000     DRN_0           
                 RCH =   173937453.5536                   RCH =     1731373.2304     RCH_0           

            TOTAL IN =   648520236.9132              TOTAL IN =     4078793.5300

          OUT:                                     OUT:
          ----                                     ----
              STO-SS =           0.0000                STO-SS =           0.0000     STORAGE         
              STO-SY =    74557489.8065                STO-SY =      110095.9778     STORAGE         
                 WEL =    47083631.1125                   WEL =     1126624.9925     WEL_0           
                 DRN =   526879115.9941                   DRN =     2842072.5597     DRN_0           
                 RCH =           0.0000                   RCH =           0.0000     RCH_0           

           TOTAL OUT =   648520236.9131             TOTAL OUT =     4078793.5300

            IN - OUT =       7.4387E-05              IN - OUT =       7.7672E-07

 PERCENT DISCREPANCY =           0.00     PERCENT DISCREPANCY =           0.00




         TIME SUMMARY AT END OF TIME STEP    1 IN STRESS PERIOD  181
                          TIME STEP LENGTH =    1.00000    
                        STRESS PERIOD TIME =    1.00000    
                     TOTAL SIMULATION TIME =    181.000    

end timestep


start timestep kper="182" kstp="1" mode="normal"


 OUTPUT CONTROL FOR STRESS PERIOD 182 IS REPEATED USING SETTINGS FROM A PREVIOUS STRESS PERIOD.


 STRESS PERIOD 182 IS TRANSIENT


 REUSING WELS FROM LAST STRESS PERIOD

 REUSING DRNS FROM LAST STRESS PERIOD

 REUSING RCHS FROM LAST STRESS PERIOD


  VOLUME BUDGET FOR ENTIRE MODEL AT END OF TIME STEP    1, STRESS PERIOD 182
  ---------------------------------------------------------------------------------------------------

     CUMULATIVE VOLUME      L**3       RATES FOR THIS TIME STEP      L**3/T          PACKAGE NAME    
     ------------------                 ------------------------                     ----------------

           IN:                                      IN:
           ---                                      ---
              STO-SS =           0.0000                STO-SS =           0.0000     STORAGE         
              STO-SY =   476911604.0020                STO-SY =     2328820.6424     STORAGE         
                 WEL =           0.0000                   WEL =           0.0000     WEL_0           
                 DRN =           0.0000                   DRN =           0.0000     DRN_0           
                 RCH =   175644600.8358                   RCH =     1707147.2822     RCH_0           

            TOTAL IN =   652556204.8378              TOTAL IN =     4035967.9246

          OUT:                                     OUT:
          ----                                     ----
              STO-SS =           0.0000                STO-SS =           0.0000     STORAGE         
              STO-SY =    74667401.6652                STO-SY =      109911.8586     STORAGE         
                 WEL =    48194798.7578                   WEL =     1111167.6454     WEL_0           
                 DRN =   529694004.4147                   DRN =     2814888.4206     DRN_0           
                 RCH =           0.0000                   RCH =           0.0000     RCH_0           

           TOTAL OUT =   652556204.8377             TOTAL OUT =     4035967.9246

            IN - OUT =       7.4387E-05              IN - OUT =      -2.1793E-07

 PERCENT DISCREPANCY =           0.00     PERCENT DISCREPANCY =          -0.00




         TIME SUMMARY AT END OF TIME STEP    1 IN STRESS PERIOD  182
                          TIME STEP LENGTH =    1.00000    
                        STRESS PERIOD TIME =    1.00000    
                     TOTAL SIMULATION TIME =    182.000    

end timestep


start timestep kper="183" kstp="1" mode="normal"


 OUTPUT CONTROL FOR STRESS PERIOD 183 IS REPEATED USING SETTINGS FROM A PREVIOUS STRESS PERIOD.


 STRESS PERIOD 183 IS TRANSIENT


 REUSING WELS FROM LAST STRESS PERIOD

 REUSING DRNS FROM LAST STRESS PERIOD

 REUSING RCHS FROM LAST STRESS PERIOD


  VOLUME BUDGET FOR ENTIRE MODEL AT END OF TIME STEP    1, STRESS PERIOD 183
  ---------------------------------------------------------------------------------------------------

     CUMULATIVE VOLUME      L**3       RATES FOR THIS TIME STEP      L**3/T          PACKAGE NAME    
     ------------------                 ------------------------                     ----------------

           IN:                                      IN:
           ---                                      ---
              STO-SS =           0.0000                STO-SS =           0.0000     STORAGE         
              STO-SY =   479343529.0953                STO-SY =     2431925.0933     STORAGE         
                 WEL =           0.0000                   WEL =           0.0000     WEL_0           
                 DRN =           0.0000                   DRN =           0.0000     DRN_0           
                 RCH =   177387371.2096                   RCH =     1742770.3738     RCH_0           

            TOTAL IN =   656730900.3048              TOTAL IN =     4174695.4671

          OUT:                                     OUT:
          ----                                     ----
              STO-SS =           0.0000                STO-SS =           0.0000     STORAGE         
              STO-SY =    74780963.1986                STO-SY =      113561.5335     STORAGE         
                 WEL =    49428230.1062                   WEL =     1233431.3484     WEL_0           
                 DRN =   532521706.9999                   DRN =     2827702.5852     DRN_0           
                 RCH =           0.0000                   RCH =           0.0000     RCH_0           

           TOTAL OUT =   656730900.3048             TOTAL OUT =     4174695.4671

            IN - OUT =       7.4983E-05              IN - OUT =       5.8766E-07

 PERCENT DISCREPANCY =           0.00     PERCENT DISCREPANCY =           0.00




         TIME SUMMARY AT END OF TIME STEP    1 IN STRESS PERIOD  183
                          TIME STEP LENGTH =    1.00000    
                        STRESS PERIOD TIME =    1.00000    
                     TOTAL SIMULATION TIME =    183.000    

end timestep


start timestep kper="184" kstp="1" mode="normal"


 OUTPUT CONTROL FOR STRESS PERIOD 184 IS REPEATED USING SETTINGS FROM A PREVIOUS STRESS PERIOD.


 STRESS PERIOD 184 IS TRANSIENT


 REUSING WELS FROM LAST STRESS PERIOD

 REUSING DRNS FROM LAST STRESS PERIOD

 REUSING RCHS FROM LAST STRESS PERIOD


  VOLUME BUDGET FOR ENTIRE MODEL AT END OF TIME STEP    1, STRESS PERIOD 184
  ---------------------------------------------------------------------------------------------------

     CUMULATIVE VOLUME      L**3       RATES FOR THIS TIME STEP      L**3/T          PACKAGE NAME    
     ------------------                 ------------------------                     ----------------

           IN:                                      IN:
           ---                                      ---
              STO-SS =           0.0000                STO-SS =           0.0000     STORAGE         
              STO-SY =   481725858.3306                STO-SY =     2382329.2354     STORAGE         
                 WEL =           0.0000                   WEL =           0.0000     WEL_0           
                 DRN =           0.0000                   DRN =           0.0000     DRN_0           
                 RCH =   179135132.2290                   RCH =     1747761.0194     RCH_0           

            TOTAL IN =   660860990.5596              TOTAL IN =     4130090.2547

          OUT:                                     OUT:
          ----                                     ----
              STO-SS =           0.0000                STO-SS =           0.0000     STORAGE         
              STO-SY =    74900273.9703                STO-SY =      119310.7716     STORAGE         
                 WEL =    50630962.8720                   WEL =     1202732.7658     WEL_0           
                 DRN =   535329753.7172                   DRN =     2808046.7173     DRN_0           
                 RCH =           0.0000                   RCH =           0.0000     RCH_0           

           TOTAL OUT =   660860990.5595             TOTAL OUT =     4130090.2547

            IN - OUT =       7.4148E-05              IN - OUT =      -7.8976E-07

 PERCENT DISCREPANCY =           0.00     PERCENT DISCREPANCY =          -0.00




         TIME SUMMARY AT END OF TIME STEP    1 IN STRESS PERIOD  184
                          TIME STEP LENGTH =    1.00000    
                        STRESS PERIOD TIME =    1.00000    
                     TOTAL SIMULATION TIME =    184.000    

end timestep


start timestep kper="185" kstp="1" mode="normal"


 OUTPUT CONTROL FOR STRESS PERIOD 185 IS REPEATED USING SETTINGS FROM A PREVIOUS STRESS PERIOD.


 STRESS PERIOD 185 IS TRANSIENT


 REUSING WELS FROM LAST STRESS PERIOD

 REUSING DRNS FROM LAST STRESS PERIOD

 REUSING RCHS FROM LAST STRESS PERIOD


  VOLUME BUDGET FOR ENTIRE MODEL AT END OF TIME STEP    1, STRESS PERIOD 185
  ---------------------------------------------------------------------------------------------------

     CUMULATIVE VOLUME      L**3       RATES FOR THIS TIME STEP      L**3/T          PACKAGE NAME    
     ------------------                 ------------------------                     ----------------

           IN:                                      IN:
           ---                                      ---
              STO-SS =           0.0000                STO-SS =           0.0000     STORAGE         
              STO-SY =   484104102.6832                STO-SY =     2378244.3526     STORAGE         
                 WEL =           0.0000                   WEL =           0.0000     WEL_0           
                 DRN =           0.0000                   DRN =           0.0000     DRN_0           
                 RCH =   180897920.1151                   RCH =     1762787.8862     RCH_0           

            TOTAL IN =   665002022.7984              TOTAL IN =     4141032.2388

          OUT:                                     OUT:
          ----                                     ----
              STO-SS =           0.0000                STO-SS =           0.0000     STORAGE         
              STO-SY =    75017922.1646                STO-SY =      117648.1943     STORAGE         
                 WEL =    51833980.0237                   WEL =     1203017.1517     WEL_0           
                 DRN =   538150120.6100                   DRN =     2820366.8928     DRN_0           
                 RCH =           0.0000                   RCH =           0.0000     RCH_0           

           TOTAL OUT =   665002022.7983             TOTAL OUT =     4141032.2388

            IN - OUT =       7.5817E-05              IN - OUT =       1.5940E-06

 PERCENT DISCREPANCY =           0.00     PERCENT DISCREPANCY =           0.00




         TIME SUMMARY AT END OF TIME STEP    1 IN STRESS PERIOD  185
                          TIME STEP LENGTH =    1.00000    
                        STRESS PERIOD TIME =    1.00000    
                     TOTAL SIMULATION TIME =    185.000    

end timestep


start timestep kper="186" kstp="1" mode="normal"


 OUTPUT CONTROL FOR STRESS PERIOD 186 IS REPEATED USING SETTINGS FROM A PREVIOUS STRESS PERIOD.


 STRESS PERIOD 186 IS TRANSIENT


 REUSING WELS FROM LAST STRESS PERIOD

 REUSING DRNS FROM LAST STRESS PERIOD

 REUSING RCHS FROM LAST STRESS PERIOD


  VOLUME BUDGET FOR ENTIRE MODEL AT END OF TIME STEP    1, STRESS PERIOD 186
  ---------------------------------------------------------------------------------------------------

     CUMULATIVE VOLUME      L**3       RATES FOR THIS TIME STEP      L**3/T          PACKAGE NAME    
     ------------------                 ------------------------                     ----------------

           IN:                                      IN:
           ---                                      ---
              STO-SS =           0.0000                STO-SS =           0.0000     STORAGE         
              STO-SY =   486537824.4558                STO-SY =     2433721.7726     STORAGE         
                 WEL =           0.0000                   WEL =           0.0000     WEL_0           
                 DRN =           0.0000                   DRN =           0.0000     DRN_0           
                 RCH =   182584377.0118                   RCH =     1686456.8967     RCH_0           

            TOTAL IN =   669122201.4677              TOTAL IN =     4120178.6693

          OUT:                                     OUT:
          ----                                     ----
              STO-SS =           0.0000                STO-SS =           0.0000     STORAGE         
              STO-SY =    75125993.1850                STO-SY =      108071.0204     STORAGE         
                 WEL =    53092567.7817                   WEL =     1258587.7580     WEL_0           
                 DRN =   540903640.5009                   DRN =     2753519.8909     DRN_0           
                 RCH =           0.0000                   RCH =           0.0000     RCH_0           

           TOTAL OUT =   669122201.4676             TOTAL OUT =     4120178.6693

            IN - OUT =       7.7605E-05              IN - OUT =       1.7672E-06

 PERCENT DISCREPANCY =           0.00     PERCENT DISCREPANCY =           0.00




         TIME SUMMARY AT END OF TIME STEP    1 IN STRESS PERIOD  186
                          TIME STEP LENGTH =    1.00000    
                        STRESS PERIOD TIME =    1.00000    
                     TOTAL SIMULATION TIME =    186.000    

end timestep


start timestep kper="187" kstp="1" mode="normal"


 OUTPUT CONTROL FOR STRESS PERIOD 187 IS REPEATED USING SETTINGS FROM A PREVIOUS STRESS PERIOD.


 STRESS PERIOD 187 IS TRANSIENT


 REUSING WELS FROM LAST STRESS PERIOD

 REUSING DRNS FROM LAST STRESS PERIOD

 REUSING RCHS FROM LAST STRESS PERIOD


  VOLUME BUDGET FOR ENTIRE MODEL AT END OF TIME STEP    1, STRESS PERIOD 187
  ---------------------------------------------------------------------------------------------------

     CUMULATIVE VOLUME      L**3       RATES FOR THIS TIME STEP      L**3/T          PACKAGE NAME    
     ------------------                 ------------------------                     ----------------

           IN:                                      IN:
           ---                                      ---
              STO-SS =           0.0000                STO-SS =           0.0000     STORAGE         
              STO-SY =   489003761.2952                STO-SY =     2465936.8393     STORAGE         
                 WEL =           0.0000                   WEL =           0.0000     WEL_0           
                 DRN =           0.0000                   DRN =           0.0000     DRN_0           
                 RCH =   184351040.7851                   RCH =     1766663.7732     RCH_0           

            TOTAL IN =   673354802.0803              TOTAL IN =     4232600.6126

          OUT:                                     OUT:
          ----                                     ----
              STO-SS =           0.0000                STO-SS =           0.0000     STORAGE         
              STO-SY =    75242033.8615                STO-SY =      116040.6765     STORAGE         
                 WEL =    54426922.5674                   WEL =     1334354.7857     WEL_0           
                 DRN =   543685845.6514                   DRN =     2782205.1504     DRN_0           
                 RCH =           0.0000                   RCH =           0.0000     RCH_0           

           TOTAL OUT =   673354802.0802             TOTAL OUT =     4232600.6126

            IN - OUT =       7.9155E-05              IN - OUT =       1.5805E-06

 PERCENT DISCREPANCY =           0.00     PERCENT DISCREPANCY =           0.00




         TIME SUMMARY AT END OF TIME STEP    1 IN STRESS PERIOD  187
                          TIME STEP LENGTH =    1.00000    
                        STRESS PERIOD TIME =    1.00000    
                     TOTAL SIMULATION TIME =    187.000    

end timestep


start timestep kper="188" kstp="1" mode="normal"


 OUTPUT CONTROL FOR STRESS PERIOD 188 IS REPEATED USING SETTINGS FROM A PREVIOUS STRESS PERIOD.


 STRESS PERIOD 188 IS TRANSIENT


 REUSING WELS FROM LAST STRESS PERIOD

 REUSING DRNS FROM LAST STRESS PERIOD

 REUSING RCHS FROM LAST STRESS PERIOD


  VOLUME BUDGET FOR ENTIRE MODEL AT END OF TIME STEP    1, STRESS PERIOD 188
  ---------------------------------------------------------------------------------------------------

     CUMULATIVE VOLUME      L**3       RATES FOR THIS TIME STEP      L**3/T          PACKAGE NAME    
     ------------------                 ------------------------                     ----------------

           IN:                                      IN:
           ---                                      ---
              STO-SS =           0.0000                STO-SS =           0.0000     STORAGE         
              STO-SY =   491404359.7757                STO-SY =     2400598.4805     STORAGE         
                 WEL =           0.0000                   WEL =           0.0000     WEL_0           
                 DRN =           0.0000                   DRN =           0.0000     DRN_0           
                 RCH =   186046303.9807                   RCH =     1695263.1956     RCH_0           

            TOTAL IN =   677450663.7564              TOTAL IN =     4095861.6761

          OUT:                                     OUT:
          ----                                     ----
              STO-SS =           0.0000                STO-SS =           0.0000     STORAGE         
              STO-SY =    75338872.6803                STO-SY =       96838.8189     STORAGE         
                 WEL =    55676129.0834                   WEL =     1249206.5160     WEL_0           
                 DRN =   546435661.9926                   DRN =     2749816.3412     DRN_0           
                 RCH =           0.0000                   RCH =           0.0000     RCH_0           

           TOTAL OUT =   677450663.7563             TOTAL OUT =     4095861.6761

            IN - OUT =       8.0109E-05              IN - OUT =       9.9558E-07

 PERCENT DISCREPANCY =           0.00     PERCENT DISCREPANCY =           0.00




         TIME SUMMARY AT END OF TIME STEP    1 IN STRESS PERIOD  188
                          TIME STEP LENGTH =    1.00000    
                        STRESS PERIOD TIME =    1.00000    
                     TOTAL SIMULATION TIME =    188.000    

end timestep


start timestep kper="189" kstp="1" mode="normal"


 OUTPUT CONTROL FOR STRESS PERIOD 189 IS REPEATED USING SETTINGS FROM A PREVIOUS STRESS PERIOD.


 STRESS PERIOD 189 IS TRANSIENT


 REUSING WELS FROM LAST STRESS PERIOD

 REUSING DRNS FROM LAST STRESS PERIOD

 REUSING RCHS FROM LAST STRESS PERIOD


  VOLUME BUDGET FOR ENTIRE MODEL AT END OF TIME STEP    1, STRESS PERIOD 189
  ---------------------------------------------------------------------------------------------------

     CUMULATIVE VOLUME      L**3       RATES FOR THIS TIME STEP      L**3/T          PACKAGE NAME    
     ------------------                 ------------------------                     ----------------

           IN:                                      IN:
           ---                                      ---
              STO-SS =           0.0000                STO-SS =           0.0000     STORAGE         
              STO-SY =   493847541.4336                STO-SY =     2443181.6579     STORAGE         
                 WEL =           0.0000                   WEL =           0.0000     WEL_0           
                 DRN =           0.0000                   DRN =           0.0000     DRN_0           
                 RCH =   187748725.4038                   RCH =     1702421.4231     RCH_0           

            TOTAL IN =   681596266.8374              TOTAL IN =     4145603.0811

          OUT:                                     OUT:
          ----                                     ----
              STO-SS =           0.0000                STO-SS =           0.0000     STORAGE         
              STO-SY =    75433840.3741                STO-SY =       94967.6938     STORAGE         
                 WEL =    56970963.9197                   WEL =     1294834.8364     WEL_0           
                 DRN =   549191462.5435                   DRN =     2755800.5509     DRN_0           
                 RCH =           0.0000                   RCH =           0.0000     RCH_0           

           TOTAL OUT =   681596266.8374             TOTAL OUT =     4145603.0811

            IN - OUT =       8.0466E-05              IN - OUT =       4.6892E-07

 PERCENT DISCREPANCY =           0.00     PERCENT DISCREPANCY =           0.00




         TIME SUMMARY AT END OF TIME STEP    1 IN STRESS PERIOD  189
                          TIME STEP LENGTH =    1.00000    
                        STRESS PERIOD TIME =    1.00000    
                     TOTAL SIMULATION TIME =    189.000    

end timestep


start timestep kper="190" kstp="1" mode="normal"


 OUTPUT CONTROL FOR STRESS PERIOD 190 IS REPEATED USING SETTINGS FROM A PREVIOUS STRESS PERIOD.


 STRESS PERIOD 190 IS TRANSIENT


 REUSING WELS FROM LAST STRESS PERIOD

 REUSING DRNS FROM LAST STRESS PERIOD

 REUSING RCHS FROM LAST STRESS PERIOD


  VOLUME BUDGET FOR ENTIRE MODEL AT END OF TIME STEP    1, STRESS PERIOD 190
  ---------------------------------------------------------------------------------------------------

     CUMULATIVE VOLUME      L**3       RATES FOR THIS TIME STEP      L**3/T          PACKAGE NAME    
     ------------------                 ------------------------                     ----------------

           IN:                                      IN:
           ---                                      ---
              STO-SS =           0.0000                STO-SS =           0.0000     STORAGE         
              STO-SY =   496279093.0200                STO-SY =     2431551.5864     STORAGE         
                 WEL =           0.0000                   WEL =           0.0000     WEL_0           
                 DRN =           0.0000                   DRN =           0.0000     DRN_0           
                 RCH =   189470218.2392                   RCH =     1721492.8354     RCH_0           

            TOTAL IN =   685749311.2592              TOTAL IN =     4153044.4218

          OUT:                                     OUT:
          ----                                     ----
              STO-SS =           0.0000                STO-SS =           0.0000     STORAGE         
              STO-SY =    75526482.4442                STO-SY =       92642.0701     STORAGE         
                 WEL =    58293474.9810                   WEL =     1322511.0613     WEL_0           
                 DRN =   551929353.8339                   DRN =     2737891.2904     DRN_0           
                 RCH =           0.0000                   RCH =           0.0000     RCH_0           

           TOTAL OUT =   685749311.2592             TOTAL OUT =     4153044.4218

            IN - OUT =       8.0109E-05              IN - OUT =      -5.0105E-07

 PERCENT DISCREPANCY =           0.00     PERCENT DISCREPANCY =          -0.00




         TIME SUMMARY AT END OF TIME STEP    1 IN STRESS PERIOD  190
                          TIME STEP LENGTH =    1.00000    
                        STRESS PERIOD TIME =    1.00000    
                     TOTAL SIMULATION TIME =    190.000    

end timestep


start timestep kper="191" kstp="1" mode="normal"


 OUTPUT CONTROL FOR STRESS PERIOD 191 IS REPEATED USING SETTINGS FROM A PREVIOUS STRESS PERIOD.


 STRESS PERIOD 191 IS TRANSIENT


 REUSING WELS FROM LAST STRESS PERIOD

 REUSING DRNS FROM LAST STRESS PERIOD

 REUSING RCHS FROM LAST STRESS PERIOD


  VOLUME BUDGET FOR ENTIRE MODEL AT END OF TIME STEP    1, STRESS PERIOD 191
  ---------------------------------------------------------------------------------------------------

     CUMULATIVE VOLUME      L**3       RATES FOR THIS TIME STEP      L**3/T          PACKAGE NAME    
     ------------------                 ------------------------                     ----------------

           IN:                                      IN:
           ---                                      ---
              STO-SS =           0.0000                STO-SS =           0.0000     STORAGE         
              STO-SY =   498710185.2569                STO-SY =     2431092.2369     STORAGE         
                 WEL =           0.0000                   WEL =           0.0000     WEL_0           
                 DRN =           0.0000                   DRN =           0.0000     DRN_0           
                 RCH =   191176912.0250                   RCH =     1706693.7858     RCH_0           

            TOTAL IN =   689887097.2820              TOTAL IN =     4137786.0227

          OUT:                                     OUT:
          ----                                     ----
              STO-SS =           0.0000                STO-SS =           0.0000     STORAGE         
              STO-SY =    75621704.7826                STO-SY =       95222.3384     STORAGE         
                 WEL =    59584005.6578                   WEL =     1290530.6768     WEL_0           
                 DRN =   554681386.8415                   DRN =     2752033.0076     DRN_0           
                 RCH =           0.0000                   RCH =           0.0000     RCH_0           

           TOTAL OUT =   689887097.2819             TOTAL OUT =     4137786.0227

            IN - OUT =       8.3089E-05              IN - OUT =       2.9691E-06

 PERCENT DISCREPANCY =           0.00     PERCENT DISCREPANCY =           0.00




         TIME SUMMARY AT END OF TIME STEP    1 IN STRESS PERIOD  191
                          TIME STEP LENGTH =    1.00000    
                        STRESS PERIOD TIME =    1.00000    
                     TOTAL SIMULATION TIME =    191.000    

end timestep


start timestep kper="192" kstp="1" mode="normal"


 OUTPUT CONTROL FOR STRESS PERIOD 192 IS REPEATED USING SETTINGS FROM A PREVIOUS STRESS PERIOD.


 STRESS PERIOD 192 IS TRANSIENT


 REUSING WELS FROM LAST STRESS PERIOD

 REUSING DRNS FROM LAST STRESS PERIOD

 REUSING RCHS FROM LAST STRESS PERIOD


  VOLUME BUDGET FOR ENTIRE MODEL AT END OF TIME STEP    1, STRESS PERIOD 192
  ---------------------------------------------------------------------------------------------------

     CUMULATIVE VOLUME      L**3       RATES FOR THIS TIME STEP      L**3/T          PACKAGE NAME    
     ------------------                 ------------------------                     ----------------

           IN:                                      IN:
           ---                                      ---
              STO-SS =           0.0000                STO-SS =           0.0000     STORAGE         
              STO-SY =   501188022.8073                STO-SY =     2477837.5504     STORAGE         
                 WEL =           0.0000                   WEL =           0.0000     WEL_0           
                 DRN =           0.0000                   DRN =           0.0000     DRN_0           
                 RCH =   192875744.7648                   RCH =     1698832.7397     RCH_0           

            TOTAL IN =   694063767.5721              TOTAL IN =     4176670.2901

          OUT:                                     OUT:
          ----                                     ----
              STO-SS =           0.0000                STO-SS =           0.0000     STORAGE         
              STO-SY =    75703861.1658                STO-SY =       82156.3832     STORAGE         
                 WEL =    60962305.4205                   WEL =     1378299.7626     WEL_0           
                 DRN =   557397600.9857                   DRN =     2716214.1442     DRN_0           
                 RCH =           0.0000                   RCH =           0.0000     RCH_0           

           TOTAL OUT =   694063767.5720             TOTAL OUT =     4176670.2901

            IN - OUT =       8.7500E-05              IN - OUT =       4.5071E-06

 PERCENT DISCREPANCY =           0.00     PERCENT DISCREPANCY =           0.00




         TIME SUMMARY AT END OF TIME STEP    1 IN STRESS PERIOD  192
                          TIME STEP LENGTH =    1.00000    
                        STRESS PERIOD TIME =    1.00000    
                     TOTAL SIMULATION TIME =    192.000    

end timestep


start timestep kper="193" kstp="1" mode="normal"


 OUTPUT CONTROL FOR STRESS PERIOD 193 IS REPEATED USING SETTINGS FROM A PREVIOUS STRESS PERIOD.


 STRESS PERIOD 193 IS TRANSIENT


 REUSING WELS FROM LAST STRESS PERIOD

 REUSING DRNS FROM LAST STRESS PERIOD

 REUSING RCHS FROM LAST STRESS PERIOD


  VOLUME BUDGET FOR ENTIRE MODEL AT END OF TIME STEP    1, STRESS PERIOD 193
  ---------------------------------------------------------------------------------------------------

     CUMULATIVE VOLUME      L**3       RATES FOR THIS TIME STEP      L**3/T          PACKAGE NAME    
     ------------------                 ------------------------                     ----------------

           IN:                                      IN:
           ---                                      ---
              STO-SS =           0.0000                STO-SS =           0.0000     STORAGE         
              STO-SY =   503596835.8595                STO-SY =     2408813.0522     STORAGE         
                 WEL =           0.0000                   WEL =           0.0000     WEL_0           
                 DRN =           0.0000                   DRN =           0.0000     DRN_0           
                 RCH =   194567310.2936                   RCH =     1691565.5288     RCH_0           

            TOTAL IN =   698164146.1530              TOTAL IN =     4100378.5810

          OUT:                                     OUT:
          ----                                     ----
              STO-SS =           0.0000                STO-SS =           0.0000     STORAGE         
              STO-SY =    75792285.5067                STO-SY =       88424.3409     STORAGE         
                 WEL =    62245679.4429                   WEL =     1283374.0225     WEL_0           
                 DRN =   560126181.2033                   DRN =     2728580.2176     DRN_0           
                 RCH =           0.0000                   RCH =           0.0000     RCH_0           

           TOTAL OUT =   698164146.1530             TOTAL OUT =     4100378.5810

            IN - OUT =       8.5711E-05              IN - OUT =      -1.8459E-06

 PERCENT DISCREPANCY =           0.00     PERCENT DISCREPANCY =          -0.00




         TIME SUMMARY AT END OF TIME STEP    1 IN STRESS PERIOD  193
                          TIME STEP LENGTH =    1.00000    
                        STRESS PERIOD TIME =    1.00000    
                     TOTAL SIMULATION TIME =    193.000    

end timestep


start timestep kper="194" kstp="1" mode="normal"


 OUTPUT CONTROL FOR STRESS PERIOD 194 IS REPEATED USING SETTINGS FROM A PREVIOUS STRESS PERIOD.


 STRESS PERIOD 194 IS TRANSIENT


 REUSING WELS FROM LAST STRESS PERIOD

 REUSING DRNS FROM LAST STRESS PERIOD

 REUSING RCHS FROM LAST STRESS PERIOD


  VOLUME BUDGET FOR ENTIRE MODEL AT END OF TIME STEP    1, STRESS PERIOD 194
  ---------------------------------------------------------------------------------------------------

     CUMULATIVE VOLUME      L**3       RATES FOR THIS TIME STEP      L**3/T          PACKAGE NAME    
     ------------------                 ------------------------                     ----------------

           IN:                                      IN:
           ---                                      ---
              STO-SS =           0.0000                STO-SS =           0.0000     STORAGE         
              STO-SY =   506070296.1466                STO-SY =     2473460.2871     STORAGE         
                 WEL =           0.0000                   WEL =           0.0000     WEL_0           
                 DRN =           0.0000                   DRN =           0.0000     DRN_0           
                 RCH =   196281888.3586                   RCH =     1714578.0650     RCH_0           

            TOTAL IN =   702352184.5052              TOTAL IN =     4188038.3522

          OUT:                                     OUT:
          ----                                     ----
              STO-SS =           0.0000                STO-SS =           0.0000     STORAGE         
              STO-SY =    75874323.4510                STO-SY =       82037.9443     STORAGE         
                 WEL =    63636574.0648                   WEL =     1390894.6218     WEL_0           
                 DRN =   562841286.9893                   DRN =     2715105.7861     DRN_0           
                 RCH =           0.0000                   RCH =           0.0000     RCH_0           

           TOTAL OUT =   702352184.5051             TOTAL OUT =     4188038.3522

            IN - OUT =       8.4877E-05              IN - OUT =      -8.5123E-07

 PERCENT DISCREPANCY =           0.00     PERCENT DISCREPANCY =          -0.00




         TIME SUMMARY AT END OF TIME STEP    1 IN STRESS PERIOD  194
                          TIME STEP LENGTH =    1.00000    
                        STRESS PERIOD TIME =    1.00000    
                     TOTAL SIMULATION TIME =    194.000    

end timestep


start timestep kper="195" kstp="1" mode="normal"


 OUTPUT CONTROL FOR STRESS PERIOD 195 IS REPEATED USING SETTINGS FROM A PREVIOUS STRESS PERIOD.


 STRESS PERIOD 195 IS TRANSIENT


 REUSING WELS FROM LAST STRESS PERIOD

 REUSING DRNS FROM LAST STRESS PERIOD

 REUSING RCHS FROM LAST STRESS PERIOD


  VOLUME BUDGET FOR ENTIRE MODEL AT END OF TIME STEP    1, STRESS PERIOD 195
  ---------------------------------------------------------------------------------------------------

     CUMULATIVE VOLUME      L**3       RATES FOR THIS TIME STEP      L**3/T          PACKAGE NAME    
     ------------------                 ------------------------                     ----------------

           IN:                                      IN:
           ---                                      ---
              STO-SS =           0.0000                STO-SS =           0.0000     STORAGE         
              STO-SY =   508535201.9750                STO-SY =     2464905.8283     STORAGE         
                 WEL =           0.0000                   WEL =           0.0000     WEL_0           
                 DRN =           0.0000                   DRN =           0.0000     DRN_0           
                 RCH =   197948457.8180                   RCH =     1666569.4594     RCH_0           

            TOTAL IN =   706483659.7929              TOTAL IN =     4131475.2877

          OUT:                                     OUT:
          ----                                     ----
              STO-SS =           0.0000                STO-SS =           0.0000     STORAGE         
              STO-SY =    75950553.9073                STO-SY =       76230.4562     STORAGE         
                 WEL =    64992428.4955                   WEL =     1355854.4308     WEL_0           
                 DRN =   565540677.3900                   DRN =     2699390.4007     DRN_0           
                 RCH =           0.0000                   RCH =           0.0000     RCH_0           

           TOTAL OUT =   706483659.7928             TOTAL OUT =     4131475.2877

            IN - OUT =       8.4043E-05              IN - OUT =      -7.6834E-07

 PERCENT DISCREPANCY =           0.00     PERCENT DISCREPANCY =          -0.00




         TIME SUMMARY AT END OF TIME STEP    1 IN STRESS PERIOD  195
                          TIME STEP LENGTH =    1.00000    
                        STRESS PERIOD TIME =    1.00000    
                     TOTAL SIMULATION TIME =    195.000    

end timestep


start timestep kper="196" kstp="1" mode="normal"


 OUTPUT CONTROL FOR STRESS PERIOD 196 IS REPEATED USING SETTINGS FROM A PREVIOUS STRESS PERIOD.


 STRESS PERIOD 196 IS TRANSIENT


 REUSING WELS FROM LAST STRESS PERIOD

 REUSING DRNS FROM LAST STRESS PERIOD

 REUSING RCHS FROM LAST STRESS PERIOD


  VOLUME BUDGET FOR ENTIRE MODEL AT END OF TIME STEP    1, STRESS PERIOD 196
  ---------------------------------------------------------------------------------------------------

     CUMULATIVE VOLUME      L**3       RATES FOR THIS TIME STEP      L**3/T          PACKAGE NAME    
     ------------------                 ------------------------                     ----------------

           IN:                                      IN:
           ---                                      ---
              STO-SS =           0.0000                STO-SS =           0.0000     STORAGE         
              STO-SY =   511080697.7737                STO-SY =     2545495.7987     STORAGE         
                 WEL =           0.0000                   WEL =           0.0000     WEL_0           
                 DRN =           0.0000                   DRN =           0.0000     DRN_0           
                 RCH =   199614520.8541                   RCH =     1666063.0362     RCH_0           

            TOTAL IN =   710695218.6278              TOTAL IN =     4211558.8349

          OUT:                                     OUT:
          ----                                     ----
              STO-SS =           0.0000                STO-SS =           0.0000     STORAGE         
              STO-SY =    76027419.5336                STO-SY =       76865.6263     STORAGE         
                 WEL =    66470382.9127                   WEL =     1477954.4172     WEL_0           
                 DRN =   568197416.1814                   DRN =     2656738.7914     DRN_0           
                 RCH =           0.0000                   RCH =           0.0000     RCH_0           

           TOTAL OUT =   710695218.6277             TOTAL OUT =     4211558.8349

            IN - OUT =       8.6904E-05              IN - OUT =       2.7986E-06

 PERCENT DISCREPANCY =           0.00     PERCENT DISCREPANCY =           0.00




         TIME SUMMARY AT END OF TIME STEP    1 IN STRESS PERIOD  196
                          TIME STEP LENGTH =    1.00000    
                        STRESS PERIOD TIME =    1.00000    
                     TOTAL SIMULATION TIME =    196.000    

end timestep


start timestep kper="197" kstp="1" mode="normal"


 OUTPUT CONTROL FOR STRESS PERIOD 197 IS REPEATED USING SETTINGS FROM A PREVIOUS STRESS PERIOD.


 STRESS PERIOD 197 IS TRANSIENT


 REUSING WELS FROM LAST STRESS PERIOD

 REUSING DRNS FROM LAST STRESS PERIOD

 REUSING RCHS FROM LAST STRESS PERIOD


  VOLUME BUDGET FOR ENTIRE MODEL AT END OF TIME STEP    1, STRESS PERIOD 197
  ---------------------------------------------------------------------------------------------------

     CUMULATIVE VOLUME      L**3       RATES FOR THIS TIME STEP      L**3/T          PACKAGE NAME    
     ------------------                 ------------------------                     ----------------

           IN:                                      IN:
           ---                                      ---
              STO-SS =           0.0000                STO-SS =           0.0000     STORAGE         
              STO-SY =   513586400.1444                STO-SY =     2505702.3707     STORAGE         
                 WEL =           0.0000                   WEL =           0.0000     WEL_0           
                 DRN =           0.0000                   DRN =           0.0000     DRN_0           
                 RCH =   201289660.4845                   RCH =     1675139.6303     RCH_0           

            TOTAL IN =   714876060.6289              TOTAL IN =     4180842.0011

          OUT:                                     OUT:
          ----                                     ----
              STO-SS =           0.0000                STO-SS =           0.0000     STORAGE         
              STO-SY =    76103625.4198                STO-SY =       76205.8862     STORAGE         
                 WEL =    67910122.9490                   WEL =     1439740.0362     WEL_0           
                 DRN =   570862312.2600                   DRN =     2664896.0786     DRN_0           
                 RCH =           0.0000                   RCH =           0.0000     RCH_0           

           TOTAL OUT =   714876060.6288             TOTAL OUT =     4180842.0011

            IN - OUT =       8.4281E-05              IN - OUT =      -2.7060E-06

 PERCENT DISCREPANCY =           0.00     PERCENT DISCREPANCY =          -0.00




         TIME SUMMARY AT END OF TIME STEP    1 IN STRESS PERIOD  197
                          TIME STEP LENGTH =    1.00000    
                        STRESS PERIOD TIME =    1.00000    
                     TOTAL SIMULATION TIME =    197.000    

end timestep


start timestep kper="198" kstp="1" mode="normal"


 OUTPUT CONTROL FOR STRESS PERIOD 198 IS REPEATED USING SETTINGS FROM A PREVIOUS STRESS PERIOD.


 STRESS PERIOD 198 IS TRANSIENT


 REUSING WELS FROM LAST STRESS PERIOD

 REUSING DRNS FROM LAST STRESS PERIOD

 REUSING RCHS FROM LAST STRESS PERIOD


  VOLUME BUDGET FOR ENTIRE MODEL AT END OF TIME STEP    1, STRESS PERIOD 198
  ---------------------------------------------------------------------------------------------------

     CUMULATIVE VOLUME      L**3       RATES FOR THIS TIME STEP      L**3/T          PACKAGE NAME    
     ------------------                 ------------------------                     ----------------

           IN:                                      IN:
           ---                                      ---
              STO-SS =           0.0000                STO-SS =           0.0000     STORAGE         
              STO-SY =   516148158.1911                STO-SY =     2561758.0467     STORAGE         
                 WEL =           0.0000                   WEL =           0.0000     WEL_0           
                 DRN =           0.0000                   DRN =           0.0000     DRN_0           
                 RCH =   202938026.1535                   RCH =     1648365.6691     RCH_0           

            TOTAL IN =   719086184.3447              TOTAL IN =     4210123.7158

          OUT:                                     OUT:
          ----                                     ----
              STO-SS =           0.0000                STO-SS =           0.0000     STORAGE         
              STO-SY =    76178686.4018                STO-SY =       75060.9820     STORAGE         
                 WEL =    69409390.2780                   WEL =     1499267.3290     WEL_0           
                 DRN =   573498107.6648                   DRN =     2635795.4048     DRN_0           
                 RCH =           0.0000                   RCH =           0.0000     RCH_0           

           TOTAL OUT =   719086184.3446             TOTAL OUT =     4210123.7158

            IN - OUT =       8.8334E-05              IN - OUT =       4.2180E-06

 PERCENT DISCREPANCY =           0.00     PERCENT DISCREPANCY =           0.00




         TIME SUMMARY AT END OF TIME STEP    1 IN STRESS PERIOD  198
                          TIME STEP LENGTH =    1.00000    
                        STRESS PERIOD TIME =    1.00000    
                     TOTAL SIMULATION TIME =    198.000    

end timestep


start timestep kper="199" kstp="1" mode="normal"


 OUTPUT CONTROL FOR STRESS PERIOD 199 IS REPEATED USING SETTINGS FROM A PREVIOUS STRESS PERIOD.


 STRESS PERIOD 199 IS TRANSIENT


 REUSING WELS FROM LAST STRESS PERIOD

 REUSING DRNS FROM LAST STRESS PERIOD

 REUSING RCHS FROM LAST STRESS PERIOD


  VOLUME BUDGET FOR ENTIRE MODEL AT END OF TIME STEP    1, STRESS PERIOD 199
  ---------------------------------------------------------------------------------------------------

     CUMULATIVE VOLUME      L**3       RATES FOR THIS TIME STEP      L**3/T          PACKAGE NAME    
     ------------------                 ------------------------                     ----------------

           IN:                                      IN:
           ---                                      ---
              STO-SS =           0.0000                STO-SS =           0.0000     STORAGE         
              STO-SY =   518609712.2902                STO-SY =     2461554.0991     STORAGE         
                 WEL =           0.0000                   WEL =           0.0000     WEL_0           
                 DRN =           0.0000                   DRN =           0.0000     DRN_0           
                 RCH =   204601310.9562                   RCH =     1663284.8027     RCH_0           

            TOTAL IN =   723211023.2465              TOTAL IN =     4124838.9018

          OUT:                                     OUT:
          ----                                     ----
              STO-SS =           0.0000                STO-SS =           0.0000     STORAGE         
              STO-SY =    76260312.7997                STO-SY =       81626.3979     STORAGE         
                 WEL =    70798879.8769                   WEL =     1389489.5989     WEL_0           
                 DRN =   576151830.5698                   DRN =     2653722.9050     DRN_0           
                 RCH =           0.0000                   RCH =           0.0000     RCH_0           

           TOTAL OUT =   723211023.2464             TOTAL OUT =     4124838.9018

            IN - OUT =       9.3102E-05              IN - OUT =       4.8457E-06

 PERCENT DISCREPANCY =           0.00     PERCENT DISCREPANCY =           0.00




         TIME SUMMARY AT END OF TIME STEP    1 IN STRESS PERIOD  199
                          TIME STEP LENGTH =    1.00000    
                        STRESS PERIOD TIME =    1.00000    
                     TOTAL SIMULATION TIME =    199.000    

end timestep


start timestep kper="200" kstp="1" mode="normal"


 OUTPUT CONTROL FOR STRESS PERIOD 200 IS REPEATED USING SETTINGS FROM A PREVIOUS STRESS PERIOD.


 STRESS PERIOD 200 IS TRANSIENT


 REUSING WELS FROM LAST STRESS PERIOD

 REUSING DRNS FROM LAST STRESS PERIOD

 REUSING RCHS FROM LAST STRESS PERIOD


  VOLUME BUDGET FOR ENTIRE MODEL AT END OF TIME STEP    1, STRESS PERIOD 200
  ---------------------------------------------------------------------------------------------------

     CUMULATIVE VOLUME      L**3       RATES FOR THIS TIME STEP      L**3/T          PACKAGE NAME    
     ------------------                 ------------------------                     ----------------

           IN:                                      IN:
           ---                                      ---
              STO-SS =           0.0000                STO-SS =           0.0000     STORAGE         
              STO-SY =   521198421.5520                STO-SY =     2588709.2618     STORAGE         
                 WEL =           0.0000                   WEL =           0.0000     WEL_0           
                 DRN =           0.0000                   DRN =           0.0000     DRN_0           
                 RCH =   206240904.4105                   RCH =     1639593.4542     RCH_0           

            TOTAL IN =   727439325.9624              TOTAL IN =     4228302.7160

          OUT:                                     OUT:
          ----                                     ----
              STO-SS =           0.0000                STO-SS =           0.0000     STORAGE         
              STO-SY =    76333421.1432                STO-SY =       73108.3435     STORAGE         
                 WEL =    72346665.0042                   WEL =     1547785.1273     WEL_0           
                 DRN =   578759239.8150                   DRN =     2607409.2452     DRN_0           
                 RCH =           0.0000                   RCH =           0.0000     RCH_0           

           TOTAL OUT =   727439325.9624             TOTAL OUT =     4228302.7160

            IN - OUT =       9.2983E-05              IN - OUT =      -1.0990E-07

 PERCENT DISCREPANCY =           0.00     PERCENT DISCREPANCY =          -0.00




         TIME SUMMARY AT END OF TIME STEP    1 IN STRESS PERIOD  200
                          TIME STEP LENGTH =    1.00000    
                        STRESS PERIOD TIME =    1.00000    
                     TOTAL SIMULATION TIME =    200.000    

end timestep


start timestep kper="201" kstp="1" mode="normal"


 OUTPUT CONTROL FOR STRESS PERIOD 201 IS REPEATED USING SETTINGS FROM A PREVIOUS STRESS PERIOD.


 STRESS PERIOD 201 IS TRANSIENT


 REUSING WELS FROM LAST STRESS PERIOD

 REUSING DRNS FROM LAST STRESS PERIOD

 REUSING RCHS FROM LAST STRESS PERIOD


  VOLUME BUDGET FOR ENTIRE MODEL AT END OF TIME STEP    1, STRESS PERIOD 201
  ---------------------------------------------------------------------------------------------------

     CUMULATIVE VOLUME      L**3       RATES FOR THIS TIME STEP      L**3/T          PACKAGE NAME    
     ------------------                 ------------------------                     ----------------

           IN:                                      IN:
           ---                                      ---
              STO-SS =           0.0000                STO-SS =           0.0000     STORAGE         
              STO-SY =   523770620.1108                STO-SY =     2572198.5589     STORAGE         
                 WEL =           0.0000                   WEL =           0.0000     WEL_0           
                 DRN =           0.0000                   DRN =           0.0000     DRN_0           
                 RCH =   207867288.9846                   RCH =     1626384.5741     RCH_0           

            TOTAL IN =   731637909.0955              TOTAL IN =     4198583.1330

          OUT:                                     OUT:
          ----                                     ----
              STO-SS =           0.0000                STO-SS =           0.0000     STORAGE         
              STO-SY =    76404518.0674                STO-SY =       71096.9242     STORAGE         
                 WEL =    73870225.8064                   WEL =     1523560.8023     WEL_0           
                 DRN =   581363165.2215                   DRN =     2603925.4065     DRN_0           
                 RCH =           0.0000                   RCH =           0.0000     RCH_0           

           TOTAL OUT =   731637909.0954             TOTAL OUT =     4198583.1330

            IN - OUT =       9.2268E-05              IN - OUT =      -7.4413E-07

 PERCENT DISCREPANCY =           0.00     PERCENT DISCREPANCY =          -0.00




         TIME SUMMARY AT END OF TIME STEP    1 IN STRESS PERIOD  201
                          TIME STEP LENGTH =    1.00000    
                        STRESS PERIOD TIME =    1.00000    
                     TOTAL SIMULATION TIME =    201.000    

end timestep


start timestep kper="202" kstp="1" mode="normal"


 OUTPUT CONTROL FOR STRESS PERIOD 202 IS REPEATED USING SETTINGS FROM A PREVIOUS STRESS PERIOD.


 STRESS PERIOD 202 IS TRANSIENT


 REUSING WELS FROM LAST STRESS PERIOD

 REUSING DRNS FROM LAST STRESS PERIOD

 REUSING RCHS FROM LAST STRESS PERIOD


  VOLUME BUDGET FOR ENTIRE MODEL AT END OF TIME STEP    1, STRESS PERIOD 202
  ---------------------------------------------------------------------------------------------------

     CUMULATIVE VOLUME      L**3       RATES FOR THIS TIME STEP      L**3/T          PACKAGE NAME    
     ------------------                 ------------------------                     ----------------

           IN:                                      IN:
           ---                                      ---
              STO-SS =           0.0000                STO-SS =           0.0000     STORAGE         
              STO-SY =   526296654.7577                STO-SY =     2526034.6469     STORAGE         
                 WEL =           0.0000                   WEL =           0.0000     WEL_0           
                 DRN =           0.0000                   DRN =           0.0000     DRN_0           
                 RCH =   209487184.3963                   RCH =     1619895.4117     RCH_0           

            TOTAL IN =   735783839.1541              TOTAL IN =     4145930.0586

          OUT:                                     OUT:
          ----                                     ----
              STO-SS =           0.0000                STO-SS =           0.0000     STORAGE         
              STO-SY =    76475842.8620                STO-SY =       71324.7946     STORAGE         
                 WEL =    75352525.3746                   WEL =     1482299.5682     WEL_0           
                 DRN =   583955470.9173                   DRN =     2592305.6958     DRN_0           
                 RCH =           0.0000                   RCH =           0.0000     RCH_0           

           TOTAL OUT =   735783839.1540             TOTAL OUT =     4145930.0586

            IN - OUT =       9.2387E-05              IN - OUT =      -4.5635E-08

 PERCENT DISCREPANCY =           0.00     PERCENT DISCREPANCY =          -0.00




         TIME SUMMARY AT END OF TIME STEP    1 IN STRESS PERIOD  202
                          TIME STEP LENGTH =    1.00000    
                        STRESS PERIOD TIME =    1.00000    
                     TOTAL SIMULATION TIME =    202.000    

end timestep


start timestep kper="203" kstp="1" mode="normal"


 OUTPUT CONTROL FOR STRESS PERIOD 203 IS REPEATED USING SETTINGS FROM A PREVIOUS STRESS PERIOD.


 STRESS PERIOD 203 IS TRANSIENT


 REUSING WELS FROM LAST STRESS PERIOD

 REUSING DRNS FROM LAST STRESS PERIOD

 REUSING RCHS FROM LAST STRESS PERIOD


  VOLUME BUDGET FOR ENTIRE MODEL AT END OF TIME STEP    1, STRESS PERIOD 203
  ---------------------------------------------------------------------------------------------------

     CUMULATIVE VOLUME      L**3       RATES FOR THIS TIME STEP      L**3/T          PACKAGE NAME    
     ------------------                 ------------------------                     ----------------

           IN:                                      IN:
           ---                                      ---
              STO-SS =           0.0000                STO-SS =           0.0000     STORAGE         
              STO-SY =   528830597.4535                STO-SY =     2533942.6958     STORAGE         
                 WEL =           0.0000                   WEL =           0.0000     WEL_0           
                 DRN =           0.0000                   DRN =           0.0000     DRN_0           
                 RCH =   211116605.4943                   RCH =     1629421.0979     RCH_0           

            TOTAL IN =   739947202.9478              TOTAL IN =     4163363.7938

          OUT:                                     OUT:
          ----                                     ----
              STO-SS =           0.0000                STO-SS =           0.0000     STORAGE         
              STO-SY =    76547291.2457                STO-SY =       71448.3837     STORAGE         
                 WEL =    76843754.9745                   WEL =     1491229.5998     WEL_0           
                 DRN =   586556156.7275                   DRN =     2600685.8102     DRN_0           
                 RCH =           0.0000                   RCH =           0.0000     RCH_0           

           TOTAL OUT =   739947202.9477             TOTAL OUT =     4163363.7938

            IN - OUT =       9.2983E-05              IN - OUT =       6.7800E-07

 PERCENT DISCREPANCY =           0.00     PERCENT DISCREPANCY =           0.00




         TIME SUMMARY AT END OF TIME STEP    1 IN STRESS PERIOD  203
                          TIME STEP LENGTH =    1.00000    
                        STRESS PERIOD TIME =    1.00000    
                     TOTAL SIMULATION TIME =    203.000    

end timestep


start timestep kper="204" kstp="1" mode="normal"


 OUTPUT CONTROL FOR STRESS PERIOD 204 IS REPEATED USING SETTINGS FROM A PREVIOUS STRESS PERIOD.


 STRESS PERIOD 204 IS TRANSIENT


 REUSING WELS FROM LAST STRESS PERIOD

 REUSING DRNS FROM LAST STRESS PERIOD

 REUSING RCHS FROM LAST STRESS PERIOD


  VOLUME BUDGET FOR ENTIRE MODEL AT END OF TIME STEP    1, STRESS PERIOD 204
  ---------------------------------------------------------------------------------------------------

     CUMULATIVE VOLUME      L**3       RATES FOR THIS TIME STEP      L**3/T          PACKAGE NAME    
     ------------------                 ------------------------                     ----------------

           IN:                                      IN:
           ---                                      ---
              STO-SS =           0.0000                STO-SS =           0.0000     STORAGE         
              STO-SY =   531402228.6591                STO-SY =     2571631.2056     STORAGE         
                 WEL =           0.0000                   WEL =           0.0000     WEL_0           
                 DRN =           0.0000                   DRN =           0.0000     DRN_0           
                 RCH =   212709398.6186                   RCH =     1592793.1243     RCH_0           

            TOTAL IN =   744111627.2777              TOTAL IN =     4164424.3299

          OUT:                                     OUT:
          ----                                     ----
              STO-SS =           0.0000                STO-SS =           0.0000     STORAGE         
              STO-SY =    76611540.6651                STO-SY =       64249.4194     STORAGE         
                 WEL =    78384010.7404                   WEL =     1540255.7659     WEL_0           
                 DRN =   589116075.8722                   DRN =     2559919.1446     DRN_0           
                 RCH =           0.0000                   RCH =           0.0000     RCH_0           

           TOTAL OUT =   744111627.2776             TOTAL OUT =     4164424.3299

            IN - OUT =       8.9407E-05              IN - OUT =      -3.7369E-06

 PERCENT DISCREPANCY =           0.00     PERCENT DISCREPANCY =          -0.00




         TIME SUMMARY AT END OF TIME STEP    1 IN STRESS PERIOD  204
                          TIME STEP LENGTH =    1.00000    
                        STRESS PERIOD TIME =    1.00000    
                     TOTAL SIMULATION TIME =    204.000    

end timestep


start timestep kper="205" kstp="1" mode="normal"


 OUTPUT CONTROL FOR STRESS PERIOD 205 IS REPEATED USING SETTINGS FROM A PREVIOUS STRESS PERIOD.


 STRESS PERIOD 205 IS TRANSIENT


 REUSING WELS FROM LAST STRESS PERIOD

 REUSING DRNS FROM LAST STRESS PERIOD

 REUSING RCHS FROM LAST STRESS PERIOD


  VOLUME BUDGET FOR ENTIRE MODEL AT END OF TIME STEP    1, STRESS PERIOD 205
  ---------------------------------------------------------------------------------------------------

     CUMULATIVE VOLUME      L**3       RATES FOR THIS TIME STEP      L**3/T          PACKAGE NAME    
     ------------------                 ------------------------                     ----------------

           IN:                                      IN:
           ---                                      ---
              STO-SS =           0.0000                STO-SS =           0.0000     STORAGE         
              STO-SY =   533884365.0216                STO-SY =     2482136.3625     STORAGE         
                 WEL =           0.0000                   WEL =           0.0000     WEL_0           
                 DRN =           0.0000                   DRN =           0.0000     DRN_0           
                 RCH =   214330852.6525                   RCH =     1621454.0338     RCH_0           

            TOTAL IN =   748215217.6741              TOTAL IN =     4103590.3964

          OUT:                                     OUT:
          ----                                     ----
              STO-SS =           0.0000                STO-SS =           0.0000     STORAGE         
              STO-SY =    76679971.4643                STO-SY =       68430.7992     STORAGE         
                 WEL =    79820971.3811                   WEL =     1436960.6407     WEL_0           
                 DRN =   591714274.8286                   DRN =     2598198.9564     DRN_0           
                 RCH =           0.0000                   RCH =           0.0000     RCH_0           

           TOTAL OUT =   748215217.6740             TOTAL OUT =     4103590.3964

            IN - OUT =       8.5950E-05              IN - OUT =      -3.2522E-06

 PERCENT DISCREPANCY =           0.00     PERCENT DISCREPANCY =          -0.00




         TIME SUMMARY AT END OF TIME STEP    1 IN STRESS PERIOD  205
                          TIME STEP LENGTH =    1.00000    
                        STRESS PERIOD TIME =    1.00000    
                     TOTAL SIMULATION TIME =    205.000    

end timestep


start timestep kper="206" kstp="1" mode="normal"


 OUTPUT CONTROL FOR STRESS PERIOD 206 IS REPEATED USING SETTINGS FROM A PREVIOUS STRESS PERIOD.


 STRESS PERIOD 206 IS TRANSIENT


 REUSING WELS FROM LAST STRESS PERIOD

 REUSING DRNS FROM LAST STRESS PERIOD

 REUSING RCHS FROM LAST STRESS PERIOD


  VOLUME BUDGET FOR ENTIRE MODEL AT END OF TIME STEP    1, STRESS PERIOD 206
  ---------------------------------------------------------------------------------------------------

     CUMULATIVE VOLUME      L**3       RATES FOR THIS TIME STEP      L**3/T          PACKAGE NAME    
     ------------------                 ------------------------                     ----------------

           IN:                                      IN:
           ---                                      ---
              STO-SS =           0.0000                STO-SS =           0.0000     STORAGE         
              STO-SY =   536428358.8334                STO-SY =     2543993.8117     STORAGE         
                 WEL =           0.0000                   WEL =           0.0000     WEL_0           
                 DRN =           0.0000                   DRN =           0.0000     DRN_0           
                 RCH =   215940874.8088                   RCH =     1610022.1564     RCH_0           

            TOTAL IN =   752369233.6422              TOTAL IN =     4154015.9681

          OUT:                                     OUT:
          ----                                     ----
              STO-SS =           0.0000                STO-SS =           0.0000     STORAGE         
              STO-SY =    76743912.1012                STO-SY =       63940.6369     STORAGE         
                 WEL =    81335011.1934                   WEL =     1514039.8123     WEL_0           
                 DRN =   594290310.2229                   DRN =     2576035.3943     DRN_0           
                 RCH =           0.0000                   RCH =           0.0000     RCH_0           

           TOTAL OUT =   752369233.5174             TOTAL OUT =     4154015.8434

            IN - OUT =           0.1248              IN - OUT =           0.1247

 PERCENT DISCREPANCY =           0.00     PERCENT DISCREPANCY =           0.00




         TIME SUMMARY AT END OF TIME STEP    1 IN STRESS PERIOD  206
                          TIME STEP LENGTH =    1.00000    
                        STRESS PERIOD TIME =    1.00000    
                     TOTAL SIMULATION TIME =    206.000    

end timestep


start timestep kper="207" kstp="1" mode="normal"


 OUTPUT CONTROL FOR STRESS PERIOD 207 IS REPEATED USING SETTINGS FROM A PREVIOUS STRESS PERIOD.


 STRESS PERIOD 207 IS TRANSIENT


 REUSING WELS FROM LAST STRESS PERIOD

 REUSING DRNS FROM LAST STRESS PERIOD

 REUSING RCHS FROM LAST STRESS PERIOD


  VOLUME BUDGET FOR ENTIRE MODEL AT END OF TIME STEP    1, STRESS PERIOD 207
  ---------------------------------------------------------------------------------------------------

     CUMULATIVE VOLUME      L**3       RATES FOR THIS TIME STEP      L**3/T          PACKAGE NAME    
     ------------------                 ------------------------                     ----------------

           IN:                                      IN:
           ---                                      ---
              STO-SS =           0.0000                STO-SS =           0.0000     STORAGE         
              STO-SY =   539008498.7154                STO-SY =     2580139.8820     STORAGE         
                 WEL =           0.0000                   WEL =           0.0000     WEL_0           
                 DRN =           0.0000                   DRN =           0.0000     DRN_0           
                 RCH =   217513314.1113                   RCH =     1572439.3025     RCH_0           

            TOTAL IN =   756521812.8267              TOTAL IN =     4152579.1845

          OUT:                                     OUT:
          ----                                     ----
              STO-SS =           0.0000                STO-SS =           0.0000     STORAGE         
              STO-SY =    76802058.1679                STO-SY =       58146.0668     STORAGE         
                 WEL =    82895265.5059                   WEL =     1560254.3125     WEL_0           
                 DRN =   596824489.0281                   DRN =     2534178.8052     DRN_0           
                 RCH =           0.0000                   RCH =           0.0000     RCH_0           

           TOTAL OUT =   756521812.7019             TOTAL OUT =     4152579.1845

            IN - OUT =           0.1248              IN - OUT =      -1.0328E-06

 PERCENT DISCREPANCY =           0.00     PERCENT DISCREPANCY =          -0.00




         TIME SUMMARY AT END OF TIME STEP    1 IN STRESS PERIOD  207
                          TIME STEP LENGTH =    1.00000    
                        STRESS PERIOD TIME =    1.00000    
                     TOTAL SIMULATION TIME =    207.000    

end timestep


start timestep kper="208" kstp="1" mode="normal"


 OUTPUT CONTROL FOR STRESS PERIOD 208 IS REPEATED USING SETTINGS FROM A PREVIOUS STRESS PERIOD.


 STRESS PERIOD 208 IS TRANSIENT


 REUSING WELS FROM LAST STRESS PERIOD

 REUSING DRNS FROM LAST STRESS PERIOD

 REUSING RCHS FROM LAST STRESS PERIOD


  VOLUME BUDGET FOR ENTIRE MODEL AT END OF TIME STEP    1, STRESS PERIOD 208
  ---------------------------------------------------------------------------------------------------

     CUMULATIVE VOLUME      L**3       RATES FOR THIS TIME STEP      L**3/T          PACKAGE NAME    
     ------------------                 ------------------------                     ----------------

           IN:                                      IN:
           ---                                      ---
              STO-SS =           0.0000                STO-SS =           0.0000     STORAGE         
              STO-SY =   541561980.9369                STO-SY =     2553482.2215     STORAGE         
                 WEL =           0.0000                   WEL =           0.0000     WEL_0           
                 DRN =           0.0000                   DRN =           0.0000     DRN_0           
                 RCH =   219083253.2635                   RCH =     1569939.1521     RCH_0           

            TOTAL IN =   760645234.2004              TOTAL IN =     4123421.3736

          OUT:                                     OUT:
          ----                                     ----
              STO-SS =           0.0000                STO-SS =           0.0000     STORAGE         
              STO-SY =    76861596.2009                STO-SY =       59538.0329     STORAGE         
                 WEL =    84434443.7615                   WEL =     1539178.2556     WEL_0           
                 DRN =   599349194.1133                   DRN =     2524705.0852     DRN_0           
                 RCH =           0.0000                   RCH =           0.0000     RCH_0           

           TOTAL OUT =   760645234.0756             TOTAL OUT =     4123421.3736

            IN - OUT =           0.1248              IN - OUT =      -3.1665E-08

 PERCENT DISCREPANCY =           0.00     PERCENT DISCREPANCY =          -0.00




         TIME SUMMARY AT END OF TIME STEP    1 IN STRESS PERIOD  208
                          TIME STEP LENGTH =    1.00000    
                        STRESS PERIOD TIME =    1.00000    
                     TOTAL SIMULATION TIME =    208.000    

end timestep


start timestep kper="209" kstp="1" mode="normal"


 OUTPUT CONTROL FOR STRESS PERIOD 209 IS REPEATED USING SETTINGS FROM A PREVIOUS STRESS PERIOD.


 STRESS PERIOD 209 IS TRANSIENT


 REUSING WELS FROM LAST STRESS PERIOD

 REUSING DRNS FROM LAST STRESS PERIOD

 REUSING RCHS FROM LAST STRESS PERIOD


  VOLUME BUDGET FOR ENTIRE MODEL AT END OF TIME STEP    1, STRESS PERIOD 209
  ---------------------------------------------------------------------------------------------------

     CUMULATIVE VOLUME      L**3       RATES FOR THIS TIME STEP      L**3/T          PACKAGE NAME    
     ------------------                 ------------------------                     ----------------

           IN:                                      IN:
           ---                                      ---
              STO-SS =           0.0000                STO-SS =           0.0000     STORAGE         
              STO-SY =   544207421.5432                STO-SY =     2645440.6063     STORAGE         
                 WEL =           0.0000                   WEL =           0.0000     WEL_0           
                 DRN =           0.0000                   DRN =           0.0000     DRN_0           
                 RCH =   220662926.4147                   RCH =     1579673.1513     RCH_0           

            TOTAL IN =   764870347.9580              TOTAL IN =     4225113.7576

          OUT:                                     OUT:
          ----                                     ----
              STO-SS =           0.0000                STO-SS =           0.0000     STORAGE         
              STO-SY =    76917259.0303                STO-SY =       55662.8294     STORAGE         
                 WEL =    86087575.2465                   WEL =     1653131.4850     WEL_0           
                 DRN =   601865513.5564                   DRN =     2516319.4432     DRN_0           
                 RCH =           0.0000                   RCH =           0.0000     RCH_0           

           TOTAL OUT =   764870347.8332             TOTAL OUT =     4225113.7576

            IN - OUT =           0.1248              IN - OUT =       1.5553E-06

 PERCENT DISCREPANCY =           0.00     PERCENT DISCREPANCY =           0.00




         TIME SUMMARY AT END OF TIME STEP    1 IN STRESS PERIOD  209
                          TIME STEP LENGTH =    1.00000    
                        STRESS PERIOD TIME =    1.00000    
                     TOTAL SIMULATION TIME =    209.000    

end timestep


start timestep kper="210" kstp="1" mode="normal"


 OUTPUT CONTROL FOR STRESS PERIOD 210 IS REPEATED USING SETTINGS FROM A PREVIOUS STRESS PERIOD.


 STRESS PERIOD 210 IS TRANSIENT


 REUSING WELS FROM LAST STRESS PERIOD

 REUSING DRNS FROM LAST STRESS PERIOD

 REUSING RCHS FROM LAST STRESS PERIOD


  VOLUME BUDGET FOR ENTIRE MODEL AT END OF TIME STEP    1, STRESS PERIOD 210
  ---------------------------------------------------------------------------------------------------

     CUMULATIVE VOLUME      L**3       RATES FOR THIS TIME STEP      L**3/T          PACKAGE NAME    
     ------------------                 ------------------------                     ----------------

           IN:                                      IN:
           ---                                      ---
              STO-SS =           0.0000                STO-SS =           0.0000     STORAGE         
              STO-SY =   546874747.3348                STO-SY =     2667325.7916     STORAGE         
                 WEL =           0.0000                   WEL =           0.0000     WEL_0           
                 DRN =           0.0000                   DRN =           0.0000     DRN_0           
                 RCH =   222199282.1234                   RCH =     1536355.7086     RCH_0           

            TOTAL IN =   769074029.4582              TOTAL IN =     4203681.5003

          OUT:                                     OUT:
          ----                                     ----
              STO-SS =           0.0000                STO-SS =           0.0000     STORAGE         
              STO-SY =    76962765.5977                STO-SY =       45506.5674     STORAGE         
                 WEL =    87766266.5174                   WEL =     1678691.2709     WEL_0           
                 DRN =   604344997.2184                   DRN =     2479483.6619     DRN_0           
                 RCH =           0.0000                   RCH =           0.0000     RCH_0           

           TOTAL OUT =   769074029.3334             TOTAL OUT =     4203681.5003

            IN - OUT =           0.1248              IN - OUT =      -1.0403E-06

 PERCENT DISCREPANCY =           0.00     PERCENT DISCREPANCY =          -0.00




         TIME SUMMARY AT END OF TIME STEP    1 IN STRESS PERIOD  210
                          TIME STEP LENGTH =    1.00000    
                        STRESS PERIOD TIME =    1.00000    
                     TOTAL SIMULATION TIME =    210.000    

end timestep


start timestep kper="211" kstp="1" mode="normal"


 OUTPUT CONTROL FOR STRESS PERIOD 211 IS REPEATED USING SETTINGS FROM A PREVIOUS STRESS PERIOD.


 STRESS PERIOD 211 IS TRANSIENT


 REUSING WELS FROM LAST STRESS PERIOD

 REUSING DRNS FROM LAST STRESS PERIOD

 REUSING RCHS FROM LAST STRESS PERIOD


  VOLUME BUDGET FOR ENTIRE MODEL AT END OF TIME STEP    1, STRESS PERIOD 211
  ---------------------------------------------------------------------------------------------------

     CUMULATIVE VOLUME      L**3       RATES FOR THIS TIME STEP      L**3/T          PACKAGE NAME    
     ------------------                 ------------------------                     ----------------

           IN:                                      IN:
           ---                                      ---
              STO-SS =           0.0000                STO-SS =           0.0000     STORAGE         
              STO-SY =   549448134.6608                STO-SY =     2573387.3260     STORAGE         
                 WEL =           0.0000                   WEL =           0.0000     WEL_0           
                 DRN =           0.0000                   DRN =           0.0000     DRN_0           
                 RCH =   223743875.5530                   RCH =     1544593.4296     RCH_0           

            TOTAL IN =   773192010.2138              TOTAL IN =     4117980.7556

          OUT:                                     OUT:
          ----                                     ----
              STO-SS =           0.0000                STO-SS =           0.0000     STORAGE         
              STO-SY =    77014695.3271                STO-SY =       51929.7293     STORAGE         
                 WEL =    89343337.7022                   WEL =     1577071.1848     WEL_0           
                 DRN =   606833977.0598                   DRN =     2488979.8414     DRN_0           
                 RCH =           0.0000                   RCH =           0.0000     RCH_0           

           TOTAL OUT =   773192010.0890             TOTAL OUT =     4117980.7555

            IN - OUT =           0.1248              IN - OUT =       3.2145E-06

 PERCENT DISCREPANCY =           0.00     PERCENT DISCREPANCY =           0.00




         TIME SUMMARY AT END OF TIME STEP    1 IN STRESS PERIOD  211
                          TIME STEP LENGTH =    1.00000    
                        STRESS PERIOD TIME =    1.00000    
                     TOTAL SIMULATION TIME =    211.000    

end timestep


start timestep kper="212" kstp="1" mode="normal"


 OUTPUT CONTROL FOR STRESS PERIOD 212 IS REPEATED USING SETTINGS FROM A PREVIOUS STRESS PERIOD.


 STRESS PERIOD 212 IS TRANSIENT


 REUSING WELS FROM LAST STRESS PERIOD

 REUSING DRNS FROM LAST STRESS PERIOD

 REUSING RCHS FROM LAST STRESS PERIOD


  VOLUME BUDGET FOR ENTIRE MODEL AT END OF TIME STEP    1, STRESS PERIOD 212
  ---------------------------------------------------------------------------------------------------

     CUMULATIVE VOLUME      L**3       RATES FOR THIS TIME STEP      L**3/T          PACKAGE NAME    
     ------------------                 ------------------------                     ----------------

           IN:                                      IN:
           ---                                      ---
              STO-SS =           0.0000                STO-SS =           0.0000     STORAGE         
              STO-SY =   552104799.3601                STO-SY =     2656664.6993     STORAGE         
                 WEL =           0.0000                   WEL =           0.0000     WEL_0           
                 DRN =           0.0000                   DRN =           0.0000     DRN_0           
                 RCH =   225266607.6030                   RCH =     1522732.0500     RCH_0           

            TOTAL IN =   777371406.9631              TOTAL IN =     4179396.7493

          OUT:                                     OUT:
          ----                                     ----
              STO-SS =           0.0000                STO-SS =           0.0000     STORAGE         
              STO-SY =    77057565.4421                STO-SY =       42870.1151     STORAGE         
                 WEL =    91009461.5541                   WEL =     1666123.8519     WEL_0           
                 DRN =   609304379.8421                   DRN =     2470402.7823     DRN_0           
                 RCH =           0.0000                   RCH =           0.0000     RCH_0           

           TOTAL OUT =   777371406.8383             TOTAL OUT =     4179396.7493

            IN - OUT =           0.1248              IN - OUT =       9.0851E-07

 PERCENT DISCREPANCY =           0.00     PERCENT DISCREPANCY =           0.00




         TIME SUMMARY AT END OF TIME STEP    1 IN STRESS PERIOD  212
                          TIME STEP LENGTH =    1.00000    
                        STRESS PERIOD TIME =    1.00000    
                     TOTAL SIMULATION TIME =    212.000    

end timestep


start timestep kper="213" kstp="1" mode="normal"


 OUTPUT CONTROL FOR STRESS PERIOD 213 IS REPEATED USING SETTINGS FROM A PREVIOUS STRESS PERIOD.


 STRESS PERIOD 213 IS TRANSIENT


 REUSING WELS FROM LAST STRESS PERIOD

 REUSING DRNS FROM LAST STRESS PERIOD

 REUSING RCHS FROM LAST STRESS PERIOD


  VOLUME BUDGET FOR ENTIRE MODEL AT END OF TIME STEP    1, STRESS PERIOD 213
  ---------------------------------------------------------------------------------------------------

     CUMULATIVE VOLUME      L**3       RATES FOR THIS TIME STEP      L**3/T          PACKAGE NAME    
     ------------------                 ------------------------                     ----------------

           IN:                                      IN:
           ---                                      ---
              STO-SS =           0.0000                STO-SS =           0.0000     STORAGE         
              STO-SY =   554751930.9143                STO-SY =     2647131.5542     STORAGE         
                 WEL =           0.0000                   WEL =           0.0000     WEL_0           
                 DRN =           0.0000                   DRN =           0.0000     DRN_0           
                 RCH =   226796526.3964                   RCH =     1529918.7935     RCH_0           

            TOTAL IN =   781548457.3107              TOTAL IN =     4177050.3476

          OUT:                                     OUT:
          ----                                     ----
              STO-SS =           0.0000                STO-SS =           0.0000     STORAGE         
              STO-SY =    77098079.2966                STO-SY =       40513.8544     STORAGE         
                 WEL =    92685304.1286                   WEL =     1675842.5745     WEL_0           
                 DRN =   611765073.7608                   DRN =     2460693.9187     DRN_0           
                 RCH =           0.0000                   RCH =           0.0000     RCH_0           

           TOTAL OUT =   781548457.1859             TOTAL OUT =     4177050.3476

            IN - OUT =           0.1248              IN - OUT =      -2.2985E-06

 PERCENT DISCREPANCY =           0.00     PERCENT DISCREPANCY =          -0.00




         TIME SUMMARY AT END OF TIME STEP    1 IN STRESS PERIOD  213
                          TIME STEP LENGTH =    1.00000    
                        STRESS PERIOD TIME =    1.00000    
                     TOTAL SIMULATION TIME =    213.000    

end timestep


start timestep kper="214" kstp="1" mode="normal"


 OUTPUT CONTROL FOR STRESS PERIOD 214 IS REPEATED USING SETTINGS FROM A PREVIOUS STRESS PERIOD.


 STRESS PERIOD 214 IS TRANSIENT


 REUSING WELS FROM LAST STRESS PERIOD

 REUSING DRNS FROM LAST STRESS PERIOD

 REUSING RCHS FROM LAST STRESS PERIOD


  VOLUME BUDGET FOR ENTIRE MODEL AT END OF TIME STEP    1, STRESS PERIOD 214
  ---------------------------------------------------------------------------------------------------

     CUMULATIVE VOLUME      L**3       RATES FOR THIS TIME STEP      L**3/T          PACKAGE NAME    
     ------------------                 ------------------------                     ----------------

           IN:                                      IN:
           ---                                      ---
              STO-SS =           0.0000                STO-SS =           0.0000     STORAGE         
              STO-SY =   557360873.5322                STO-SY =     2608942.6179     STORAGE         
                 WEL =           0.0000                   WEL =           0.0000     WEL_0           
                 DRN =           0.0000                   DRN =           0.0000     DRN_0           
                 RCH =   228299162.9841                   RCH =     1502636.5876     RCH_0           

            TOTAL IN =   785660036.5163              TOTAL IN =     4111579.2056

          OUT:                                     OUT:
          ----                                     ----
              STO-SS =           0.0000                STO-SS =           0.0000     STORAGE         
              STO-SY =    77139007.1363                STO-SY =       40927.8397     STORAGE         
                 WEL =    94315517.7208                   WEL =     1630213.5922     WEL_0           
                 DRN =   614205511.5345                   DRN =     2440437.7737     DRN_0           
                 RCH =           0.0000                   RCH =           0.0000     RCH_0           

           TOTAL OUT =   785660036.3915             TOTAL OUT =     4111579.2056

            IN - OUT =           0.1248              IN - OUT =      -6.2399E-07

 PERCENT DISCREPANCY =           0.00     PERCENT DISCREPANCY =          -0.00




         TIME SUMMARY AT END OF TIME STEP    1 IN STRESS PERIOD  214
                          TIME STEP LENGTH =    1.00000    
                        STRESS PERIOD TIME =    1.00000    
                     TOTAL SIMULATION TIME =    214.000    

end timestep


start timestep kper="215" kstp="1" mode="normal"


 OUTPUT CONTROL FOR STRESS PERIOD 215 IS REPEATED USING SETTINGS FROM A PREVIOUS STRESS PERIOD.


 STRESS PERIOD 215 IS TRANSIENT


 REUSING WELS FROM LAST STRESS PERIOD

 REUSING DRNS FROM LAST STRESS PERIOD

 REUSING RCHS FROM LAST STRESS PERIOD


  VOLUME BUDGET FOR ENTIRE MODEL AT END OF TIME STEP    1, STRESS PERIOD 215
  ---------------------------------------------------------------------------------------------------

     CUMULATIVE VOLUME      L**3       RATES FOR THIS TIME STEP      L**3/T          PACKAGE NAME    
     ------------------                 ------------------------                     ----------------

           IN:                                      IN:
           ---                                      ---
              STO-SS =           0.0000                STO-SS =           0.0000     STORAGE         
              STO-SY =   560026071.4091                STO-SY =     2665197.8769     STORAGE         
                 WEL =           0.0000                   WEL =           0.0000     WEL_0           
                 DRN =           0.0000                   DRN =           0.0000     DRN_0           
                 RCH =   229816025.5654                   RCH =     1516862.5814     RCH_0           

            TOTAL IN =   789842096.9745              TOTAL IN =     4182060.4582

          OUT:                                     OUT:
          ----                                     ----
              STO-SS =           0.0000                STO-SS =           0.0000     STORAGE         
              STO-SY =    77181742.4944                STO-SY =       42735.3581     STORAGE         
                 WEL =    96017350.9659                   WEL =     1701833.2452     WEL_0           
                 DRN =   616643003.3895                   DRN =     2437491.8550     DRN_0           
                 RCH =           0.0000                   RCH =           0.0000     RCH_0           

           TOTAL OUT =   789842096.8498             TOTAL OUT =     4182060.4582

            IN - OUT =           0.1248              IN - OUT =       2.5788E-06

 PERCENT DISCREPANCY =           0.00     PERCENT DISCREPANCY =           0.00




         TIME SUMMARY AT END OF TIME STEP    1 IN STRESS PERIOD  215
                          TIME STEP LENGTH =    1.00000    
                        STRESS PERIOD TIME =    1.00000    
                     TOTAL SIMULATION TIME =    215.000    

end timestep


start timestep kper="216" kstp="1" mode="normal"


 OUTPUT CONTROL FOR STRESS PERIOD 216 IS REPEATED USING SETTINGS FROM A PREVIOUS STRESS PERIOD.


 STRESS PERIOD 216 IS TRANSIENT


 REUSING WELS FROM LAST STRESS PERIOD

 REUSING DRNS FROM LAST STRESS PERIOD

 REUSING RCHS FROM LAST STRESS PERIOD


  VOLUME BUDGET FOR ENTIRE MODEL AT END OF TIME STEP    1, STRESS PERIOD 216
  ---------------------------------------------------------------------------------------------------

     CUMULATIVE VOLUME      L**3       RATES FOR THIS TIME STEP      L**3/T          PACKAGE NAME    
     ------------------                 ------------------------                     ----------------

           IN:                                      IN:
           ---                                      ---
              STO-SS =           0.0000                STO-SS =           0.0000     STORAGE         
              STO-SY =   562660210.4696                STO-SY =     2634139.0605     STORAGE         
                 WEL =           0.0000                   WEL =           0.0000     WEL_0           
                 DRN =           0.0000                   DRN =           0.0000     DRN_0           
                 RCH =   231343886.2820                   RCH =     1527860.7165     RCH_0           

            TOTAL IN =   794004096.7515              TOTAL IN =     4161999.7770

          OUT:                                     OUT:
          ----                                     ----
              STO-SS =           0.0000                STO-SS =           0.0000     STORAGE         
              STO-SY =    77222629.6488                STO-SY =       40887.1544     STORAGE         
                 WEL =    97686955.9892                   WEL =     1669605.0233     WEL_0           
                 DRN =   619094510.9888                   DRN =     2451507.5993     DRN_0           
                 RCH =           0.0000                   RCH =           0.0000     RCH_0           

           TOTAL OUT =   794004096.6268             TOTAL OUT =     4161999.7770

            IN - OUT =           0.1248              IN - OUT =      -3.0734E-08

 PERCENT DISCREPANCY =           0.00     PERCENT DISCREPANCY =          -0.00




         TIME SUMMARY AT END OF TIME STEP    1 IN STRESS PERIOD  216
                          TIME STEP LENGTH =    1.00000    
                        STRESS PERIOD TIME =    1.00000    
                     TOTAL SIMULATION TIME =    216.000    

end timestep


start timestep kper="217" kstp="1" mode="normal"


 OUTPUT CONTROL FOR STRESS PERIOD 217 IS REPEATED USING SETTINGS FROM A PREVIOUS STRESS PERIOD.


 STRESS PERIOD 217 IS TRANSIENT


 REUSING WELS FROM LAST STRESS PERIOD

 REUSING DRNS FROM LAST STRESS PERIOD

 REUSING RCHS FROM LAST STRESS PERIOD


  VOLUME BUDGET FOR ENTIRE MODEL AT END OF TIME STEP    1, STRESS PERIOD 217
  ---------------------------------------------------------------------------------------------------

     CUMULATIVE VOLUME      L**3       RATES FOR THIS TIME STEP      L**3/T          PACKAGE NAME    
     ------------------                 ------------------------                     ----------------

           IN:                                      IN:
           ---                                      ---
              STO-SS =           0.0000                STO-SS =           0.0000     STORAGE         
              STO-SY =   565200306.8502                STO-SY =     2540096.3806     STORAGE         
                 WEL =           0.0000                   WEL =           0.0000     WEL_0           
                 DRN =           0.0000                   DRN =           0.0000     DRN_0           
                 RCH =   232845413.5890                   RCH =     1501527.3070     RCH_0           

            TOTAL IN =   798045720.4392              TOTAL IN =     4041623.6876

          OUT:                                     OUT:
          ----                                     ----
              STO-SS =           0.0000                STO-SS =           0.0000     STORAGE         
              STO-SY =    77263902.3014                STO-SY =       41272.6527     STORAGE         
                 WEL =    99239798.6990                   WEL =     1552842.7098     WEL_0           
                 DRN =   621542019.3139                   DRN =     2447508.3251     DRN_0           
                 RCH =           0.0000                   RCH =           0.0000     RCH_0           

           TOTAL OUT =   798045720.3144             TOTAL OUT =     4041623.6876

            IN - OUT =           0.1248              IN - OUT =       1.8650E-06

 PERCENT DISCREPANCY =           0.00     PERCENT DISCREPANCY =           0.00




         TIME SUMMARY AT END OF TIME STEP    1 IN STRESS PERIOD  217
                          TIME STEP LENGTH =    1.00000    
                        STRESS PERIOD TIME =    1.00000    
                     TOTAL SIMULATION TIME =    217.000    

end timestep


start timestep kper="218" kstp="1" mode="normal"


 OUTPUT CONTROL FOR STRESS PERIOD 218 IS REPEATED USING SETTINGS FROM A PREVIOUS STRESS PERIOD.


 STRESS PERIOD 218 IS TRANSIENT


 REUSING WELS FROM LAST STRESS PERIOD

 REUSING DRNS FROM LAST STRESS PERIOD

 REUSING RCHS FROM LAST STRESS PERIOD


  VOLUME BUDGET FOR ENTIRE MODEL AT END OF TIME STEP    1, STRESS PERIOD 218
  ---------------------------------------------------------------------------------------------------

     CUMULATIVE VOLUME      L**3       RATES FOR THIS TIME STEP      L**3/T          PACKAGE NAME    
     ------------------                 ------------------------                     ----------------

           IN:                                      IN:
           ---                                      ---
              STO-SS =           0.0000                STO-SS =           0.0000     STORAGE         
              STO-SY =   567808556.8518                STO-SY =     2608250.0016     STORAGE         
                 WEL =           0.0000                   WEL =           0.0000     WEL_0           
                 DRN =           0.0000                   DRN =           0.0000     DRN_0           
                 RCH =   234371164.9391                   RCH =     1525751.3501     RCH_0           

            TOTAL IN =   802179721.7909              TOTAL IN =     4134001.3518

          OUT:                                     OUT:
          ----                                     ----
              STO-SS =           0.0000                STO-SS =           0.0000     STORAGE         
              STO-SY =    77304924.4710                STO-SY =       41022.1696     STORAGE         
                 WEL =   100872155.2905                   WEL =     1632356.5914     WEL_0           
                 DRN =   624002641.9047                   DRN =     2460622.5907     DRN_0           
                 RCH =           0.0000                   RCH =           0.0000     RCH_0           

           TOTAL OUT =   802179721.6662             TOTAL OUT =     4134001.3518

            IN - OUT =           0.1248              IN - OUT =       3.3663E-06

 PERCENT DISCREPANCY =           0.00     PERCENT DISCREPANCY =           0.00




         TIME SUMMARY AT END OF TIME STEP    1 IN STRESS PERIOD  218
                          TIME STEP LENGTH =    1.00000    
                        STRESS PERIOD TIME =    1.00000    
                     TOTAL SIMULATION TIME =    218.000    

end timestep


start timestep kper="219" kstp="1" mode="normal"


 OUTPUT CONTROL FOR STRESS PERIOD 219 IS REPEATED USING SETTINGS FROM A PREVIOUS STRESS PERIOD.


 STRESS PERIOD 219 IS TRANSIENT


 REUSING WELS FROM LAST STRESS PERIOD

 REUSING DRNS FROM LAST STRESS PERIOD

 REUSING RCHS FROM LAST STRESS PERIOD


  VOLUME BUDGET FOR ENTIRE MODEL AT END OF TIME STEP    1, STRESS PERIOD 219
  ---------------------------------------------------------------------------------------------------

     CUMULATIVE VOLUME      L**3       RATES FOR THIS TIME STEP      L**3/T          PACKAGE NAME    
     ------------------                 ------------------------                     ----------------

           IN:                                      IN:
           ---                                      ---
              STO-SS =           0.0000                STO-SS =           0.0000     STORAGE         
              STO-SY =   570410058.7747                STO-SY =     2601501.9229     STORAGE         
                 WEL =           0.0000                   WEL =           0.0000     WEL_0           
                 DRN =           0.0000                   DRN =           0.0000     DRN_0           
                 RCH =   235884547.6101                   RCH =     1513382.6710     RCH_0           

            TOTAL IN =   806294606.3848              TOTAL IN =     4114884.5939

          OUT:                                     OUT:
          ----                                     ----
              STO-SS =           0.0000                STO-SS =           0.0000     STORAGE         
              STO-SY =    77346732.3232                STO-SY =       41807.8522     STORAGE         
                 WEL =   102521310.9900                   WEL =     1649155.6995     WEL_0           
                 DRN =   626426562.9468                   DRN =     2423921.0422     DRN_0           
                 RCH =           0.0000                   RCH =           0.0000     RCH_0           

           TOTAL OUT =   806294606.2600             TOTAL OUT =     4114884.5939

            IN - OUT =           0.1248              IN - OUT =       3.1274E-06

 PERCENT DISCREPANCY =           0.00     PERCENT DISCREPANCY =           0.00




         TIME SUMMARY AT END OF TIME STEP    1 IN STRESS PERIOD  219
                          TIME STEP LENGTH =    1.00000    
                        STRESS PERIOD TIME =    1.00000    
                     TOTAL SIMULATION TIME =    219.000    

end timestep


start timestep kper="220" kstp="1" mode="normal"


 OUTPUT CONTROL FOR STRESS PERIOD 220 IS REPEATED USING SETTINGS FROM A PREVIOUS STRESS PERIOD.


 STRESS PERIOD 220 IS TRANSIENT


 REUSING WELS FROM LAST STRESS PERIOD

 REUSING DRNS FROM LAST STRESS PERIOD

 REUSING RCHS FROM LAST STRESS PERIOD


  VOLUME BUDGET FOR ENTIRE MODEL AT END OF TIME STEP    1, STRESS PERIOD 220
  ---------------------------------------------------------------------------------------------------

     CUMULATIVE VOLUME      L**3       RATES FOR THIS TIME STEP      L**3/T          PACKAGE NAME    
     ------------------                 ------------------------                     ----------------

           IN:                                      IN:
           ---                                      ---
              STO-SS =           0.0000                STO-SS =           0.0000     STORAGE         
              STO-SY =   573003576.5009                STO-SY =     2593517.7262     STORAGE         
                 WEL =           0.0000                   WEL =           0.0000     WEL_0           
                 DRN =           0.0000                   DRN =           0.0000     DRN_0           
                 RCH =   237352520.2469                   RCH =     1467972.6368     RCH_0           

            TOTAL IN =   810356096.7478              TOTAL IN =     4061490.3630

          OUT:                                     OUT:
          ----                                     ----
              STO-SS =           0.0000                STO-SS =           0.0000     STORAGE         
              STO-SY =    77380257.0880                STO-SY =       33524.7648     STORAGE         
                 WEL =   104133897.9551                   WEL =     1612586.9651     WEL_0           
                 DRN =   628841941.5799                   DRN =     2415378.6331     DRN_0           
                 RCH =           0.0000                   RCH =           0.0000     RCH_0           

           TOTAL OUT =   810356096.6230             TOTAL OUT =     4061490.3630

            IN - OUT =           0.1248              IN - OUT =       1.4808E-06

 PERCENT DISCREPANCY =           0.00     PERCENT DISCREPANCY =           0.00




         TIME SUMMARY AT END OF TIME STEP    1 IN STRESS PERIOD  220
                          TIME STEP LENGTH =    1.00000    
                        STRESS PERIOD TIME =    1.00000    
                     TOTAL SIMULATION TIME =    220.000    

end timestep


start timestep kper="221" kstp="1" mode="normal"


 OUTPUT CONTROL FOR STRESS PERIOD 221 IS REPEATED USING SETTINGS FROM A PREVIOUS STRESS PERIOD.


 STRESS PERIOD 221 IS TRANSIENT


 REUSING WELS FROM LAST STRESS PERIOD

 REUSING DRNS FROM LAST STRESS PERIOD

 REUSING RCHS FROM LAST STRESS PERIOD


  VOLUME BUDGET FOR ENTIRE MODEL AT END OF TIME STEP    1, STRESS PERIOD 221
  ---------------------------------------------------------------------------------------------------

     CUMULATIVE VOLUME      L**3       RATES FOR THIS TIME STEP      L**3/T          PACKAGE NAME    
     ------------------                 ------------------------                     ----------------

           IN:                                      IN:
           ---                                      ---
              STO-SS =           0.0000                STO-SS =           0.0000     STORAGE         
              STO-SY =   575676907.8156                STO-SY =     2673331.3147     STORAGE         
                 WEL =           0.0000                   WEL =           0.0000     WEL_0           
                 DRN =           0.0000                   DRN =           0.0000     DRN_0           
                 RCH =   238834769.8839                   RCH =     1482249.6370     RCH_0           

            TOTAL IN =   814511677.6995              TOTAL IN =     4155580.9517

          OUT:                                     OUT:
          ----                                     ----
              STO-SS =           0.0000                STO-SS =           0.0000     STORAGE         
              STO-SY =    77416865.7945                STO-SY =       36608.7065     STORAGE         
                 WEL =   105859067.6248                   WEL =     1725169.6697     WEL_0           
                 DRN =   631235744.1554                   DRN =     2393802.5755     DRN_0           
                 RCH =           0.0000                   RCH =           0.0000     RCH_0           

           TOTAL OUT =   814511677.5747             TOTAL OUT =     4155580.9517

            IN - OUT =           0.1248              IN - OUT =      -2.4075E-06

 PERCENT DISCREPANCY =           0.00     PERCENT DISCREPANCY =          -0.00




         TIME SUMMARY AT END OF TIME STEP    1 IN STRESS PERIOD  221
                          TIME STEP LENGTH =    1.00000    
                        STRESS PERIOD TIME =    1.00000    
                     TOTAL SIMULATION TIME =    221.000    

end timestep


start timestep kper="222" kstp="1" mode="normal"


 OUTPUT CONTROL FOR STRESS PERIOD 222 IS REPEATED USING SETTINGS FROM A PREVIOUS STRESS PERIOD.


 STRESS PERIOD 222 IS TRANSIENT


 REUSING WELS FROM LAST STRESS PERIOD

 REUSING DRNS FROM LAST STRESS PERIOD

 REUSING RCHS FROM LAST STRESS PERIOD


  VOLUME BUDGET FOR ENTIRE MODEL AT END OF TIME STEP    1, STRESS PERIOD 222
  ---------------------------------------------------------------------------------------------------

     CUMULATIVE VOLUME      L**3       RATES FOR THIS TIME STEP      L**3/T          PACKAGE NAME    
     ------------------                 ------------------------                     ----------------

           IN:                                      IN:
           ---                                      ---
              STO-SS =           0.0000                STO-SS =           0.0000     STORAGE         
              STO-SY =   578382339.8421                STO-SY =     2705432.0265     STORAGE         
                 WEL =           0.0000                   WEL =           0.0000     WEL_0           
                 DRN =           0.0000                   DRN =           0.0000     DRN_0           
                 RCH =   240293242.6379                   RCH =     1458472.7541     RCH_0           

            TOTAL IN =   818675582.4800              TOTAL IN =     4163904.7805

          OUT:                                     OUT:
          ----                                     ----
              STO-SS =           0.0000                STO-SS =           0.0000     STORAGE         
              STO-SY =    77446251.1610                STO-SY =       29385.3665     STORAGE         
                 WEL =   107628675.7414                   WEL =     1769608.1166     WEL_0           
                 DRN =   633600655.4528                   DRN =     2364911.2975     DRN_0           
                 RCH =           0.0000                   RCH =           0.0000     RCH_0           

           TOTAL OUT =   818675582.3552             TOTAL OUT =     4163904.7805

            IN - OUT =           0.1248              IN - OUT =       8.4704E-07

 PERCENT DISCREPANCY =           0.00     PERCENT DISCREPANCY =           0.00




         TIME SUMMARY AT END OF TIME STEP    1 IN STRESS PERIOD  222
                          TIME STEP LENGTH =    1.00000    
                        STRESS PERIOD TIME =    1.00000    
                     TOTAL SIMULATION TIME =    222.000    

end timestep


start timestep kper="223" kstp="1" mode="normal"


 OUTPUT CONTROL FOR STRESS PERIOD 223 IS REPEATED USING SETTINGS FROM A PREVIOUS STRESS PERIOD.


 STRESS PERIOD 223 IS TRANSIENT


 REUSING WELS FROM LAST STRESS PERIOD

 REUSING DRNS FROM LAST STRESS PERIOD

 REUSING RCHS FROM LAST STRESS PERIOD


  VOLUME BUDGET FOR ENTIRE MODEL AT END OF TIME STEP    1, STRESS PERIOD 223
  ---------------------------------------------------------------------------------------------------

     CUMULATIVE VOLUME      L**3       RATES FOR THIS TIME STEP      L**3/T          PACKAGE NAME    
     ------------------                 ------------------------                     ----------------

           IN:                                      IN:
           ---                                      ---
              STO-SS =           0.0000                STO-SS =           0.0000     STORAGE         
              STO-SY =   581144790.9351                STO-SY =     2762451.0930     STORAGE         
                 WEL =           0.0000                   WEL =           0.0000     WEL_0           
                 DRN =           0.0000                   DRN =           0.0000     DRN_0           
                 RCH =   241675896.2575                   RCH =     1382653.6196     RCH_0           

            TOTAL IN =   822820687.1926              TOTAL IN =     4145104.7126

          OUT:                                     OUT:
          ----                                     ----
              STO-SS =           0.0000                STO-SS =           0.0000     STORAGE         
              STO-SY =    77475857.2241                STO-SY =       29606.0631     STORAGE         
                 WEL =   109451228.3450                   WEL =     1822552.6036     WEL_0           
                 DRN =   635893601.4987                   DRN =     2292946.0459     DRN_0           
                 RCH =           0.0000                   RCH =           0.0000     RCH_0           

           TOTAL OUT =   822820687.0678             TOTAL OUT =     4145104.7126

            IN - OUT =           0.1248              IN - OUT =      -6.9570E-07

 PERCENT DISCREPANCY =           0.00     PERCENT DISCREPANCY =          -0.00




         TIME SUMMARY AT END OF TIME STEP    1 IN STRESS PERIOD  223
                          TIME STEP LENGTH =    1.00000    
                        STRESS PERIOD TIME =    1.00000    
                     TOTAL SIMULATION TIME =    223.000    

end timestep


start timestep kper="224" kstp="1" mode="normal"


 OUTPUT CONTROL FOR STRESS PERIOD 224 IS REPEATED USING SETTINGS FROM A PREVIOUS STRESS PERIOD.


 STRESS PERIOD 224 IS TRANSIENT


 REUSING WELS FROM LAST STRESS PERIOD

 REUSING DRNS FROM LAST STRESS PERIOD

 REUSING RCHS FROM LAST STRESS PERIOD


  VOLUME BUDGET FOR ENTIRE MODEL AT END OF TIME STEP    1, STRESS PERIOD 224
  ---------------------------------------------------------------------------------------------------

     CUMULATIVE VOLUME      L**3       RATES FOR THIS TIME STEP      L**3/T          PACKAGE NAME    
     ------------------                 ------------------------                     ----------------

           IN:                                      IN:
           ---                                      ---
              STO-SS =           0.0000                STO-SS =           0.0000     STORAGE         
              STO-SY =   584064551.9704                STO-SY =     2919761.0353     STORAGE         
                 WEL =           0.0000                   WEL =           0.0000     WEL_0           
                 DRN =           0.0000                   DRN =           0.0000     DRN_0           
                 RCH =   243086117.6226                   RCH =     1410221.3651     RCH_0           

            TOTAL IN =   827150669.5930              TOTAL IN =     4329982.4004

          OUT:                                     OUT:
          ----                                     ----
              STO-SS =           0.0000                STO-SS =           0.0000     STORAGE         
              STO-SY =    77501925.8871                STO-SY =       26068.6630     STORAGE         
                 WEL =   111487019.3504                   WEL =     2035791.0054     WEL_0           
                 DRN =   638161724.2307                   DRN =     2268122.7320     DRN_0           
                 RCH =           0.0000                   RCH =           0.0000     RCH_0           

           TOTAL OUT =   827150669.4682             TOTAL OUT =     4329982.4004

            IN - OUT =           0.1248              IN - OUT =       1.1763E-06

 PERCENT DISCREPANCY =           0.00     PERCENT DISCREPANCY =           0.00




         TIME SUMMARY AT END OF TIME STEP    1 IN STRESS PERIOD  224
                          TIME STEP LENGTH =    1.00000    
                        STRESS PERIOD TIME =    1.00000    
                     TOTAL SIMULATION TIME =    224.000    

end timestep


start timestep kper="225" kstp="1" mode="normal"


 OUTPUT CONTROL FOR STRESS PERIOD 225 IS REPEATED USING SETTINGS FROM A PREVIOUS STRESS PERIOD.


 STRESS PERIOD 225 IS TRANSIENT


 REUSING WELS FROM LAST STRESS PERIOD

 REUSING DRNS FROM LAST STRESS PERIOD

 REUSING RCHS FROM LAST STRESS PERIOD


  VOLUME BUDGET FOR ENTIRE MODEL AT END OF TIME STEP    1, STRESS PERIOD 225
  ---------------------------------------------------------------------------------------------------

     CUMULATIVE VOLUME      L**3       RATES FOR THIS TIME STEP      L**3/T          PACKAGE NAME    
     ------------------                 ------------------------                     ----------------

           IN:                                      IN:
           ---                                      ---
              STO-SS =           0.0000                STO-SS =           0.0000     STORAGE         
              STO-SY =   586910699.9095                STO-SY =     2846147.9391     STORAGE         
                 WEL =           0.0000                   WEL =           0.0000     WEL_0           
                 DRN =           0.0000                   DRN =           0.0000     DRN_0           
                 RCH =   244484138.0470                   RCH =     1398020.4244     RCH_0           

            TOTAL IN =   831394837.9565              TOTAL IN =     4244168.3635

          OUT:                                     OUT:
          ----                                     ----
              STO-SS =           0.0000                STO-SS =           0.0000     STORAGE         
              STO-SY =    77537349.9088                STO-SY =       35424.0217     STORAGE         
                 WEL =   113457293.9210                   WEL =     1970274.5706     WEL_0           
                 DRN =   640400193.6610                   DRN =     2238469.4303     DRN_0           
                 RCH =           0.0000                   RCH =           0.0000     RCH_0           

           TOTAL OUT =   831394837.4908             TOTAL OUT =     4244168.0226

            IN - OUT =           0.4657              IN - OUT =           0.3409

 PERCENT DISCREPANCY =           0.00     PERCENT DISCREPANCY =           0.00




         TIME SUMMARY AT END OF TIME STEP    1 IN STRESS PERIOD  225
                          TIME STEP LENGTH =    1.00000    
                        STRESS PERIOD TIME =    1.00000    
                     TOTAL SIMULATION TIME =    225.000    

end timestep


start timestep kper="226" kstp="1" mode="normal"


 OUTPUT CONTROL FOR STRESS PERIOD 226 IS REPEATED USING SETTINGS FROM A PREVIOUS STRESS PERIOD.


 STRESS PERIOD 226 IS TRANSIENT


 REUSING WELS FROM LAST STRESS PERIOD

 REUSING DRNS FROM LAST STRESS PERIOD

 REUSING RCHS FROM LAST STRESS PERIOD


  VOLUME BUDGET FOR ENTIRE MODEL AT END OF TIME STEP    1, STRESS PERIOD 226
  ---------------------------------------------------------------------------------------------------

     CUMULATIVE VOLUME      L**3       RATES FOR THIS TIME STEP      L**3/T          PACKAGE NAME    
     ------------------                 ------------------------                     ----------------

           IN:                                      IN:
           ---                                      ---
              STO-SS =           0.0000                STO-SS =           0.0000     STORAGE         
              STO-SY =   589760522.1302                STO-SY =     2849822.2206     STORAGE         
                 WEL =           0.0000                   WEL =           0.0000     WEL_0           
                 DRN =           0.0000                   DRN =           0.0000     DRN_0           
                 RCH =   245850929.1438                   RCH =     1366791.0968     RCH_0           

            TOTAL IN =   835611451.2740              TOTAL IN =     4216613.3175

          OUT:                                     OUT:
          ----                                     ----
              STO-SS =           0.0000                STO-SS =           0.0000     STORAGE         
              STO-SY =    77560979.8184                STO-SY =       23629.9096     STORAGE         
                 WEL =   115406104.4011                   WEL =     1948810.4801     WEL_0           
                 DRN =   642644366.4887                   DRN =     2244172.8277     DRN_0           
                 RCH =           0.0000                   RCH =           0.0000     RCH_0           

           TOTAL OUT =   835611450.7082             TOTAL OUT =     4216613.2174

            IN - OUT =           0.5658              IN - OUT =           0.1001

 PERCENT DISCREPANCY =           0.00     PERCENT DISCREPANCY =           0.00




         TIME SUMMARY AT END OF TIME STEP    1 IN STRESS PERIOD  226
                          TIME STEP LENGTH =    1.00000    
                        STRESS PERIOD TIME =    1.00000    
                     TOTAL SIMULATION TIME =    226.000    

end timestep


start timestep kper="227" kstp="1" mode="normal"


 OUTPUT CONTROL FOR STRESS PERIOD 227 IS REPEATED USING SETTINGS FROM A PREVIOUS STRESS PERIOD.


 STRESS PERIOD 227 IS TRANSIENT


 REUSING WELS FROM LAST STRESS PERIOD

 REUSING DRNS FROM LAST STRESS PERIOD

 REUSING RCHS FROM LAST STRESS PERIOD


  VOLUME BUDGET FOR ENTIRE MODEL AT END OF TIME STEP    1, STRESS PERIOD 227
  ---------------------------------------------------------------------------------------------------

     CUMULATIVE VOLUME      L**3       RATES FOR THIS TIME STEP      L**3/T          PACKAGE NAME    
     ------------------                 ------------------------                     ----------------

           IN:                                      IN:
           ---                                      ---
              STO-SS =           0.0000                STO-SS =           0.0000     STORAGE         
              STO-SY =   592662815.5116                STO-SY =     2902293.3814     STORAGE         
                 WEL =           0.0000                   WEL =           0.0000     WEL_0           
                 DRN =           0.0000                   DRN =           0.0000     DRN_0           
                 RCH =   247194157.3508                   RCH =     1343228.2069     RCH_0           

            TOTAL IN =   839856972.8623              TOTAL IN =     4245521.5883

          OUT:                                     OUT:
          ----                                     ----
              STO-SS =           0.0000                STO-SS =           0.0000     STORAGE         
              STO-SY =    77587693.8038                STO-SY =       26713.9854     STORAGE         
                 WEL =   117427053.4659                   WEL =     2020949.0648     WEL_0           
                 DRN =   644842225.0268                   DRN =     2197858.5381     DRN_0           
                 RCH =           0.0000                   RCH =           0.0000     RCH_0           

           TOTAL OUT =   839856972.2965             TOTAL OUT =     4245521.5883

            IN - OUT =           0.5658              IN - OUT =       3.3341E-07

 PERCENT DISCREPANCY =           0.00     PERCENT DISCREPANCY =           0.00




         TIME SUMMARY AT END OF TIME STEP    1 IN STRESS PERIOD  227
                          TIME STEP LENGTH =    1.00000    
                        STRESS PERIOD TIME =    1.00000    
                     TOTAL SIMULATION TIME =    227.000    

end timestep


start timestep kper="228" kstp="1" mode="normal"


 OUTPUT CONTROL FOR STRESS PERIOD 228 IS REPEATED USING SETTINGS FROM A PREVIOUS STRESS PERIOD.


 STRESS PERIOD 228 IS TRANSIENT


 REUSING WELS FROM LAST STRESS PERIOD

 REUSING DRNS FROM LAST STRESS PERIOD

 REUSING RCHS FROM LAST STRESS PERIOD


  VOLUME BUDGET FOR ENTIRE MODEL AT END OF TIME STEP    1, STRESS PERIOD 228
  ---------------------------------------------------------------------------------------------------

     CUMULATIVE VOLUME      L**3       RATES FOR THIS TIME STEP      L**3/T          PACKAGE NAME    
     ------------------                 ------------------------                     ----------------

           IN:                                      IN:
           ---                                      ---
              STO-SS =           0.0000                STO-SS =           0.0000     STORAGE         
              STO-SY =   595591559.0411                STO-SY =     2928743.5296     STORAGE         
                 WEL =           0.0000                   WEL =           0.0000     WEL_0           
                 DRN =           0.0000                   DRN =           0.0000     DRN_0           
                 RCH =   248552864.9171                   RCH =     1358707.5663     RCH_0           

            TOTAL IN =   844144423.9582              TOTAL IN =     4287451.0959

          OUT:                                     OUT:
          ----                                     ----
              STO-SS =           0.0000                STO-SS =           0.0000     STORAGE         
              STO-SY =    77607498.9561                STO-SY =       19805.1523     STORAGE         
                 WEL =   119490601.4401                   WEL =     2063547.9742     WEL_0           
                 DRN =   647046322.9962                   DRN =     2204097.9694     DRN_0           
                 RCH =           0.0000                   RCH =           0.0000     RCH_0           

           TOTAL OUT =   844144423.3924             TOTAL OUT =     4287451.0959

            IN - OUT =           0.5658              IN - OUT =      -3.7625E-07

 PERCENT DISCREPANCY =           0.00     PERCENT DISCREPANCY =          -0.00




         TIME SUMMARY AT END OF TIME STEP    1 IN STRESS PERIOD  228
                          TIME STEP LENGTH =    1.00000    
                        STRESS PERIOD TIME =    1.00000    
                     TOTAL SIMULATION TIME =    228.000    

end timestep


start timestep kper="229" kstp="1" mode="normal"


 OUTPUT CONTROL FOR STRESS PERIOD 229 IS REPEATED USING SETTINGS FROM A PREVIOUS STRESS PERIOD.


 STRESS PERIOD 229 IS TRANSIENT


 REUSING WELS FROM LAST STRESS PERIOD

 REUSING DRNS FROM LAST STRESS PERIOD

 REUSING RCHS FROM LAST STRESS PERIOD


  VOLUME BUDGET FOR ENTIRE MODEL AT END OF TIME STEP    1, STRESS PERIOD 229
  ---------------------------------------------------------------------------------------------------

     CUMULATIVE VOLUME      L**3       RATES FOR THIS TIME STEP      L**3/T          PACKAGE NAME    
     ------------------                 ------------------------                     ----------------

           IN:                                      IN:
           ---                                      ---
              STO-SS =           0.0000                STO-SS =           0.0000     STORAGE         
              STO-SY =   598491051.0918                STO-SY =     2899492.0507     STORAGE         
                 WEL =           0.0000                   WEL =           0.0000     WEL_0           
                 DRN =           0.0000                   DRN =           0.0000     DRN_0           
                 RCH =   249892516.5379                   RCH =     1339651.6208     RCH_0           

            TOTAL IN =   848383567.6297              TOTAL IN =     4239143.6715

          OUT:                                     OUT:
          ----                                     ----
              STO-SS =           0.0000                STO-SS =           0.0000     STORAGE         
              STO-SY =    77632162.7601                STO-SY =       24663.8040     STORAGE         
                 WEL =   121525029.0771                   WEL =     2034427.6370     WEL_0           
                 DRN =   649226375.2268                   DRN =     2180052.2305     DRN_0           
                 RCH =           0.0000                   RCH =           0.0000     RCH_0           

           TOTAL OUT =   848383567.0639             TOTAL OUT =     4239143.6715

            IN - OUT =           0.5658              IN - OUT =      -1.7565E-06

 PERCENT DISCREPANCY =           0.00     PERCENT DISCREPANCY =          -0.00




         TIME SUMMARY AT END OF TIME STEP    1 IN STRESS PERIOD  229
                          TIME STEP LENGTH =    1.00000    
                        STRESS PERIOD TIME =    1.00000    
                     TOTAL SIMULATION TIME =    229.000    

end timestep


start timestep kper="230" kstp="1" mode="normal"


 OUTPUT CONTROL FOR STRESS PERIOD 230 IS REPEATED USING SETTINGS FROM A PREVIOUS STRESS PERIOD.


 STRESS PERIOD 230 IS TRANSIENT


 REUSING WELS FROM LAST STRESS PERIOD

 REUSING DRNS FROM LAST STRESS PERIOD

 REUSING RCHS FROM LAST STRESS PERIOD


  VOLUME BUDGET FOR ENTIRE MODEL AT END OF TIME STEP    1, STRESS PERIOD 230
  ---------------------------------------------------------------------------------------------------

     CUMULATIVE VOLUME      L**3       RATES FOR THIS TIME STEP      L**3/T          PACKAGE NAME    
     ------------------                 ------------------------                     ----------------

           IN:                                      IN:
           ---                                      ---
              STO-SS =           0.0000                STO-SS =           0.0000     STORAGE         
              STO-SY =   601333552.4441                STO-SY =     2842501.3523     STORAGE         
                 WEL =           0.0000                   WEL =           0.0000     WEL_0           
                 DRN =           0.0000                   DRN =           0.0000     DRN_0           
                 RCH =   251253710.3788                   RCH =     1361193.8408     RCH_0           

            TOTAL IN =   852587262.8228              TOTAL IN =     4203695.1931

          OUT:                                     OUT:
          ----                                     ----
              STO-SS =           0.0000                STO-SS =           0.0000     STORAGE         
              STO-SY =    77656247.6161                STO-SY =       24084.8560     STORAGE         
                 WEL =   123483085.2205                   WEL =     1958056.1435     WEL_0           
                 DRN =   651447929.4204                   DRN =     2221554.1937     DRN_0           
                 RCH =           0.0000                   RCH =           0.0000     RCH_0           

           TOTAL OUT =   852587262.2570             TOTAL OUT =     4203695.1931

            IN - OUT =           0.5658              IN - OUT =       9.8720E-07

 PERCENT DISCREPANCY =           0.00     PERCENT DISCREPANCY =           0.00




         TIME SUMMARY AT END OF TIME STEP    1 IN STRESS PERIOD  230
                          TIME STEP LENGTH =    1.00000    
                        STRESS PERIOD TIME =    1.00000    
                     TOTAL SIMULATION TIME =    230.000    

end timestep


start timestep kper="231" kstp="1" mode="normal"


 OUTPUT CONTROL FOR STRESS PERIOD 231 IS REPEATED USING SETTINGS FROM A PREVIOUS STRESS PERIOD.


 STRESS PERIOD 231 IS TRANSIENT


 REUSING WELS FROM LAST STRESS PERIOD

 REUSING DRNS FROM LAST STRESS PERIOD

 REUSING RCHS FROM LAST STRESS PERIOD


  VOLUME BUDGET FOR ENTIRE MODEL AT END OF TIME STEP    1, STRESS PERIOD 231
  ---------------------------------------------------------------------------------------------------

     CUMULATIVE VOLUME      L**3       RATES FOR THIS TIME STEP      L**3/T          PACKAGE NAME    
     ------------------                 ------------------------                     ----------------

           IN:                                      IN:
           ---                                      ---
              STO-SS =           0.0000                STO-SS =           0.0000     STORAGE         
              STO-SY =   604172446.5133                STO-SY =     2838894.0693     STORAGE         
                 WEL =           0.0000                   WEL =           0.0000     WEL_0           
                 DRN =           0.0000                   DRN =           0.0000     DRN_0           
                 RCH =   252589684.4600                   RCH =     1335974.0813     RCH_0           

            TOTAL IN =   856762130.9734              TOTAL IN =     4174868.1505

          OUT:                                     OUT:
          ----                                     ----
              STO-SS =           0.0000                STO-SS =           0.0000     STORAGE         
              STO-SY =    77678269.2057                STO-SY =       22021.5896     STORAGE         
                 WEL =   125444674.9806                   WEL =     1961589.7601     WEL_0           
                 DRN =   653639186.2213                   DRN =     2191256.8008     DRN_0           
                 RCH =           0.0000                   RCH =           0.0000     RCH_0           

           TOTAL OUT =   856762130.4076             TOTAL OUT =     4174868.1505

            IN - OUT =           0.5658              IN - OUT =       1.4412E-06

 PERCENT DISCREPANCY =           0.00     PERCENT DISCREPANCY =           0.00




         TIME SUMMARY AT END OF TIME STEP    1 IN STRESS PERIOD  231
                          TIME STEP LENGTH =    1.00000    
                        STRESS PERIOD TIME =    1.00000    
                     TOTAL SIMULATION TIME =    231.000    

end timestep


start timestep kper="232" kstp="1" mode="normal"


 OUTPUT CONTROL FOR STRESS PERIOD 232 IS REPEATED USING SETTINGS FROM A PREVIOUS STRESS PERIOD.


 STRESS PERIOD 232 IS TRANSIENT


 REUSING WELS FROM LAST STRESS PERIOD

 REUSING DRNS FROM LAST STRESS PERIOD

 REUSING RCHS FROM LAST STRESS PERIOD


  VOLUME BUDGET FOR ENTIRE MODEL AT END OF TIME STEP    1, STRESS PERIOD 232
  ---------------------------------------------------------------------------------------------------

     CUMULATIVE VOLUME      L**3       RATES FOR THIS TIME STEP      L**3/T          PACKAGE NAME    
     ------------------                 ------------------------                     ----------------

           IN:                                      IN:
           ---                                      ---
              STO-SS =           0.0000                STO-SS =           0.0000     STORAGE         
              STO-SY =   606957905.9329                STO-SY =     2785459.4196     STORAGE         
                 WEL =           0.0000                   WEL =           0.0000     WEL_0           
                 DRN =           0.0000                   DRN =           0.0000     DRN_0           
                 RCH =   253919320.1400                   RCH =     1329635.6800     RCH_0           

            TOTAL IN =   860877226.0729              TOTAL IN =     4115095.0996

          OUT:                                     OUT:
          ----                                     ----
              STO-SS =           0.0000                STO-SS =           0.0000     STORAGE         
              STO-SY =    77703281.7114                STO-SY =       25012.5058     STORAGE         
                 WEL =   127327830.7627                   WEL =     1883155.7821     WEL_0           
                 DRN =   655846113.0330                   DRN =     2206926.8117     DRN_0           
                 RCH =           0.0000                   RCH =           0.0000     RCH_0           

           TOTAL OUT =   860877225.5071             TOTAL OUT =     4115095.0996

            IN - OUT =           0.5658              IN - OUT =      -1.3690E-07

 PERCENT DISCREPANCY =           0.00     PERCENT DISCREPANCY =          -0.00




         TIME SUMMARY AT END OF TIME STEP    1 IN STRESS PERIOD  232
                          TIME STEP LENGTH =    1.00000    
                        STRESS PERIOD TIME =    1.00000    
                     TOTAL SIMULATION TIME =    232.000    

end timestep


start timestep kper="233" kstp="1" mode="normal"


 OUTPUT CONTROL FOR STRESS PERIOD 233 IS REPEATED USING SETTINGS FROM A PREVIOUS STRESS PERIOD.


 STRESS PERIOD 233 IS TRANSIENT


 REUSING WELS FROM LAST STRESS PERIOD

 REUSING DRNS FROM LAST STRESS PERIOD

 REUSING RCHS FROM LAST STRESS PERIOD


  VOLUME BUDGET FOR ENTIRE MODEL AT END OF TIME STEP    1, STRESS PERIOD 233
  ---------------------------------------------------------------------------------------------------

     CUMULATIVE VOLUME      L**3       RATES FOR THIS TIME STEP      L**3/T          PACKAGE NAME    
     ------------------                 ------------------------                     ----------------

           IN:                                      IN:
           ---                                      ---
              STO-SS =           0.0000                STO-SS =           0.0000     STORAGE         
              STO-SY =   609827987.3446                STO-SY =     2870081.4117     STORAGE         
                 WEL =           0.0000                   WEL =           0.0000     WEL_0           
                 DRN =           0.0000                   DRN =           0.0000     DRN_0           
                 RCH =   255252350.5940                   RCH =     1333030.4540     RCH_0           

            TOTAL IN =   865080337.9386              TOTAL IN =     4203111.8657

          OUT:                                     OUT:
          ----                                     ----
              STO-SS =           0.0000                STO-SS =           0.0000     STORAGE         
              STO-SY =    77723862.8155                STO-SY =       20581.1041     STORAGE         
                 WEL =   129329131.8619                   WEL =     2001301.0992     WEL_0           
                 DRN =   658027342.6955                   DRN =     2181229.6625     DRN_0           
                 RCH =           0.0000                   RCH =           0.0000     RCH_0           

           TOTAL OUT =   865080337.3728             TOTAL OUT =     4203111.8657

            IN - OUT =           0.5658              IN - OUT =       7.9162E-08

 PERCENT DISCREPANCY =           0.00     PERCENT DISCREPANCY =           0.00




         TIME SUMMARY AT END OF TIME STEP    1 IN STRESS PERIOD  233
                          TIME STEP LENGTH =    1.00000    
                        STRESS PERIOD TIME =    1.00000    
                     TOTAL SIMULATION TIME =    233.000    

end timestep


start timestep kper="234" kstp="1" mode="normal"


 OUTPUT CONTROL FOR STRESS PERIOD 234 IS REPEATED USING SETTINGS FROM A PREVIOUS STRESS PERIOD.


 STRESS PERIOD 234 IS TRANSIENT


 REUSING WELS FROM LAST STRESS PERIOD

 REUSING DRNS FROM LAST STRESS PERIOD

 REUSING RCHS FROM LAST STRESS PERIOD


  VOLUME BUDGET FOR ENTIRE MODEL AT END OF TIME STEP    1, STRESS PERIOD 234
  ---------------------------------------------------------------------------------------------------

     CUMULATIVE VOLUME      L**3       RATES FOR THIS TIME STEP      L**3/T          PACKAGE NAME    
     ------------------                 ------------------------                     ----------------

           IN:                                      IN:
           ---                                      ---
              STO-SS =           0.0000                STO-SS =           0.0000     STORAGE         
              STO-SY =   612680419.1892                STO-SY =     2852431.8445     STORAGE         
                 WEL =           0.0000                   WEL =           0.0000     WEL_0           
                 DRN =           0.0000                   DRN =           0.0000     DRN_0           
                 RCH =   256565234.5110                   RCH =     1312883.9170     RCH_0           

            TOTAL IN =   869245653.7002              TOTAL IN =     4165315.7615

          OUT:                                     OUT:
          ----                                     ----
              STO-SS =           0.0000                STO-SS =           0.0000     STORAGE         
              STO-SY =    77744509.6898                STO-SY =       20646.8743     STORAGE         
                 WEL =   131307231.2964                   WEL =     1978099.4345     WEL_0           
                 DRN =   660193912.1481                   DRN =     2166569.4527     DRN_0           
                 RCH =           0.0000                   RCH =           0.0000     RCH_0           

           TOTAL OUT =   869245653.1344             TOTAL OUT =     4165315.7615

            IN - OUT =           0.5658              IN - OUT =       2.2445E-07

 PERCENT DISCREPANCY =           0.00     PERCENT DISCREPANCY =           0.00




         TIME SUMMARY AT END OF TIME STEP    1 IN STRESS PERIOD  234
                          TIME STEP LENGTH =    1.00000    
                        STRESS PERIOD TIME =    1.00000    
                     TOTAL SIMULATION TIME =    234.000    

end timestep


start timestep kper="235" kstp="1" mode="normal"


 OUTPUT CONTROL FOR STRESS PERIOD 235 IS REPEATED USING SETTINGS FROM A PREVIOUS STRESS PERIOD.


 STRESS PERIOD 235 IS TRANSIENT


 REUSING WELS FROM LAST STRESS PERIOD

 REUSING DRNS FROM LAST STRESS PERIOD

 REUSING RCHS FROM LAST STRESS PERIOD


  VOLUME BUDGET FOR ENTIRE MODEL AT END OF TIME STEP    1, STRESS PERIOD 235
  ---------------------------------------------------------------------------------------------------

     CUMULATIVE VOLUME      L**3       RATES FOR THIS TIME STEP      L**3/T          PACKAGE NAME    
     ------------------                 ------------------------                     ----------------

           IN:                                      IN:
           ---                                      ---
              STO-SS =           0.0000                STO-SS =           0.0000     STORAGE         
              STO-SY =   615521964.4211                STO-SY =     2841545.2319     STORAGE         
                 WEL =           0.0000                   WEL =           0.0000     WEL_0           
                 DRN =           0.0000                   DRN =           0.0000     DRN_0           
                 RCH =   257858073.5990                   RCH =     1292839.0881     RCH_0           

            TOTAL IN =   873380038.0202              TOTAL IN =     4134384.3200

          OUT:                                     OUT:
          ----                                     ----
              STO-SS =           0.0000                STO-SS =           0.0000     STORAGE         
              STO-SY =    77768969.9409                STO-SY =       24460.2510     STORAGE         
                 WEL =   133261960.3934                   WEL =     1954729.0970     WEL_0           
                 DRN =   662349107.1201                   DRN =     2155194.9720     DRN_0           
                 RCH =           0.0000                   RCH =           0.0000     RCH_0           

           TOTAL OUT =   873380037.4544             TOTAL OUT =     4134384.3200

            IN - OUT =           0.5658              IN - OUT =      -5.4948E-08

 PERCENT DISCREPANCY =           0.00     PERCENT DISCREPANCY =          -0.00




         TIME SUMMARY AT END OF TIME STEP    1 IN STRESS PERIOD  235
                          TIME STEP LENGTH =    1.00000    
                        STRESS PERIOD TIME =    1.00000    
                     TOTAL SIMULATION TIME =    235.000    

end timestep


start timestep kper="236" kstp="1" mode="normal"


 OUTPUT CONTROL FOR STRESS PERIOD 236 IS REPEATED USING SETTINGS FROM A PREVIOUS STRESS PERIOD.


 STRESS PERIOD 236 IS TRANSIENT


 REUSING WELS FROM LAST STRESS PERIOD

 REUSING DRNS FROM LAST STRESS PERIOD

 REUSING RCHS FROM LAST STRESS PERIOD


  VOLUME BUDGET FOR ENTIRE MODEL AT END OF TIME STEP    1, STRESS PERIOD 236
  ---------------------------------------------------------------------------------------------------

     CUMULATIVE VOLUME      L**3       RATES FOR THIS TIME STEP      L**3/T          PACKAGE NAME    
     ------------------                 ------------------------                     ----------------

           IN:                                      IN:
           ---                                      ---
              STO-SS =           0.0000                STO-SS =           0.0000     STORAGE         
              STO-SY =   618453052.5433                STO-SY =     2931088.1221     STORAGE         
                 WEL =           0.0000                   WEL =           0.0000     WEL_0           
                 DRN =           0.0000                   DRN =           0.0000     DRN_0           
                 RCH =   259166981.7984                   RCH =     1308908.1994     RCH_0           

            TOTAL IN =   877620034.3417              TOTAL IN =     4239996.3215

          OUT:                                     OUT:
          ----                                     ----
              STO-SS =           0.0000                STO-SS =           0.0000     STORAGE         
              STO-SY =    77790394.5624                STO-SY =       21424.6215     STORAGE         
                 WEL =   135337138.0009                   WEL =     2075177.6075     WEL_0           
                 DRN =   664492501.2126                   DRN =     2143394.0925     DRN_0           
                 RCH =           0.0000                   RCH =           0.0000     RCH_0           

           TOTAL OUT =   877620033.7759             TOTAL OUT =     4239996.3215

            IN - OUT =           0.5658              IN - OUT =       1.6289E-06

 PERCENT DISCREPANCY =           0.00     PERCENT DISCREPANCY =           0.00




         TIME SUMMARY AT END OF TIME STEP    1 IN STRESS PERIOD  236
                          TIME STEP LENGTH =    1.00000    
                        STRESS PERIOD TIME =    1.00000    
                     TOTAL SIMULATION TIME =    236.000    

end timestep


start timestep kper="237" kstp="1" mode="normal"


 OUTPUT CONTROL FOR STRESS PERIOD 237 IS REPEATED USING SETTINGS FROM A PREVIOUS STRESS PERIOD.


 STRESS PERIOD 237 IS TRANSIENT


 REUSING WELS FROM LAST STRESS PERIOD

 REUSING DRNS FROM LAST STRESS PERIOD

 REUSING RCHS FROM LAST STRESS PERIOD


  VOLUME BUDGET FOR ENTIRE MODEL AT END OF TIME STEP    1, STRESS PERIOD 237
  ---------------------------------------------------------------------------------------------------

     CUMULATIVE VOLUME      L**3       RATES FOR THIS TIME STEP      L**3/T          PACKAGE NAME    
     ------------------                 ------------------------                     ----------------

           IN:                                      IN:
           ---                                      ---
              STO-SS =           0.0000                STO-SS =           0.0000     STORAGE         
              STO-SY =   621302877.7254                STO-SY =     2849825.1821     STORAGE         
                 WEL =           0.0000                   WEL =           0.0000     WEL_0           
                 DRN =           0.0000                   DRN =           0.0000     DRN_0           
                 RCH =   260450029.9537                   RCH =     1283048.1553     RCH_0           

            TOTAL IN =   881752907.6791              TOTAL IN =     4132873.3374

          OUT:                                     OUT:
          ----                                     ----
              STO-SS =           0.0000                STO-SS =           0.0000     STORAGE         
              STO-SY =    77814203.1132                STO-SY =       23808.5508     STORAGE         
                 WEL =   137324635.9960                   WEL =     1987497.9951     WEL_0           
                 DRN =   666614068.0041                   DRN =     2121566.7915     DRN_0           
                 RCH =           0.0000                   RCH =           0.0000     RCH_0           

           TOTAL OUT =   881752907.1133             TOTAL OUT =     4132873.3374

            IN - OUT =           0.5658              IN - OUT =      -7.9116E-07

 PERCENT DISCREPANCY =           0.00     PERCENT DISCREPANCY =          -0.00




         TIME SUMMARY AT END OF TIME STEP    1 IN STRESS PERIOD  237
                          TIME STEP LENGTH =    1.00000    
                        STRESS PERIOD TIME =    1.00000    
                     TOTAL SIMULATION TIME =    237.000    

end timestep


start timestep kper="238" kstp="1" mode="normal"


 OUTPUT CONTROL FOR STRESS PERIOD 238 IS REPEATED USING SETTINGS FROM A PREVIOUS STRESS PERIOD.


 STRESS PERIOD 238 IS TRANSIENT


 REUSING WELS FROM LAST STRESS PERIOD

 REUSING DRNS FROM LAST STRESS PERIOD

 REUSING RCHS FROM LAST STRESS PERIOD


  VOLUME BUDGET FOR ENTIRE MODEL AT END OF TIME STEP    1, STRESS PERIOD 238
  ---------------------------------------------------------------------------------------------------

     CUMULATIVE VOLUME      L**3       RATES FOR THIS TIME STEP      L**3/T          PACKAGE NAME    
     ------------------                 ------------------------                     ----------------

           IN:                                      IN:
           ---                                      ---
              STO-SS =           0.0000                STO-SS =           0.0000     STORAGE         
              STO-SY =   624218837.8824                STO-SY =     2915960.1570     STORAGE         
                 WEL =           0.0000                   WEL =           0.0000     WEL_0           
                 DRN =           0.0000                   DRN =           0.0000     DRN_0           
                 RCH =   261714993.1529                   RCH =     1264963.1991     RCH_0           

            TOTAL IN =   885933831.0352              TOTAL IN =     4180923.3561

          OUT:                                     OUT:
          ----                                     ----
              STO-SS =           0.0000                STO-SS =           0.0000     STORAGE         
              STO-SY =    77832743.8665                STO-SY =       18540.7533     STORAGE         
                 WEL =   139377208.2504                   WEL =     2052572.2544     WEL_0           
                 DRN =   668723878.3525                   DRN =     2109810.3484     DRN_0           
                 RCH =           0.0000                   RCH =           0.0000     RCH_0           

           TOTAL OUT =   885933830.4694             TOTAL OUT =     4180923.3561

            IN - OUT =           0.5658              IN - OUT =       2.5313E-06

 PERCENT DISCREPANCY =           0.00     PERCENT DISCREPANCY =           0.00




         TIME SUMMARY AT END OF TIME STEP    1 IN STRESS PERIOD  238
                          TIME STEP LENGTH =    1.00000    
                        STRESS PERIOD TIME =    1.00000    
                     TOTAL SIMULATION TIME =    238.000    

end timestep


start timestep kper="239" kstp="1" mode="normal"


 OUTPUT CONTROL FOR STRESS PERIOD 239 IS REPEATED USING SETTINGS FROM A PREVIOUS STRESS PERIOD.


 STRESS PERIOD 239 IS TRANSIENT


 REUSING WELS FROM LAST STRESS PERIOD

 REUSING DRNS FROM LAST STRESS PERIOD

 REUSING RCHS FROM LAST STRESS PERIOD


  VOLUME BUDGET FOR ENTIRE MODEL AT END OF TIME STEP    1, STRESS PERIOD 239
  ---------------------------------------------------------------------------------------------------

     CUMULATIVE VOLUME      L**3       RATES FOR THIS TIME STEP      L**3/T          PACKAGE NAME    
     ------------------                 ------------------------                     ----------------

           IN:                                      IN:
           ---                                      ---
              STO-SS =           0.0000                STO-SS =           0.0000     STORAGE         
              STO-SY =   627146474.1207                STO-SY =     2927636.2384     STORAGE         
                 WEL =           0.0000                   WEL =           0.0000     WEL_0           
                 DRN =           0.0000                   DRN =           0.0000     DRN_0           
                 RCH =   262999992.9741                   RCH =     1284999.8213     RCH_0           

            TOTAL IN =   890146467.0949              TOTAL IN =     4212636.0596

          OUT:                                     OUT:
          ----                                     ----
              STO-SS =           0.0000                STO-SS =           0.0000     STORAGE         
              STO-SY =    77855026.4766                STO-SY =       22282.6101     STORAGE         
                 WEL =   141464405.1895                   WEL =     2087196.9391     WEL_0           
                 DRN =   670827034.8629                   DRN =     2103156.5104     DRN_0           
                 RCH =           0.0000                   RCH =           0.0000     RCH_0           

           TOTAL OUT =   890146466.5291             TOTAL OUT =     4212636.0596

            IN - OUT =           0.5658              IN - OUT =       2.1234E-06

 PERCENT DISCREPANCY =           0.00     PERCENT DISCREPANCY =           0.00




         TIME SUMMARY AT END OF TIME STEP    1 IN STRESS PERIOD  239
                          TIME STEP LENGTH =    1.00000    
                        STRESS PERIOD TIME =    1.00000    
                     TOTAL SIMULATION TIME =    239.000    

end timestep


start timestep kper="240" kstp="1" mode="normal"


 OUTPUT CONTROL FOR STRESS PERIOD 240 IS REPEATED USING SETTINGS FROM A PREVIOUS STRESS PERIOD.


 STRESS PERIOD 240 IS TRANSIENT


 REUSING WELS FROM LAST STRESS PERIOD

 REUSING DRNS FROM LAST STRESS PERIOD

 REUSING RCHS FROM LAST STRESS PERIOD


  VOLUME BUDGET FOR ENTIRE MODEL AT END OF TIME STEP    1, STRESS PERIOD 240
  ---------------------------------------------------------------------------------------------------

     CUMULATIVE VOLUME      L**3       RATES FOR THIS TIME STEP      L**3/T          PACKAGE NAME    
     ------------------                 ------------------------                     ----------------

           IN:                                      IN:
           ---                                      ---
              STO-SS =           0.0000                STO-SS =           0.0000     STORAGE         
              STO-SY =   630017186.7997                STO-SY =     2870712.6790     STORAGE         
                 WEL =           0.0000                   WEL =           0.0000     WEL_0           
                 DRN =           0.0000                   DRN =           0.0000     DRN_0           
                 RCH =   264286012.4192                   RCH =     1286019.4451     RCH_0           

            TOTAL IN =   894303199.2189              TOTAL IN =     4156732.1240

          OUT:                                     OUT:
          ----                                     ----
              STO-SS =           0.0000                STO-SS =           0.0000     STORAGE         
              STO-SY =    77872617.2192                STO-SY =       17590.7426     STORAGE         
                 WEL =   143487289.4113                   WEL =     2022884.2218     WEL_0           
                 DRN =   672943292.0226                   DRN =     2116257.1597     DRN_0           
                 RCH =           0.0000                   RCH =           0.0000     RCH_0           

           TOTAL OUT =   894303198.6531             TOTAL OUT =     4156732.1240

            IN - OUT =           0.5658              IN - OUT =       1.4384E-06

 PERCENT DISCREPANCY =           0.00     PERCENT DISCREPANCY =           0.00




         TIME SUMMARY AT END OF TIME STEP    1 IN STRESS PERIOD  240
                          TIME STEP LENGTH =    1.00000    
                        STRESS PERIOD TIME =    1.00000    
                     TOTAL SIMULATION TIME =    240.000    

end timestep


start timestep kper="241" kstp="1" mode="normal"


 OUTPUT CONTROL FOR STRESS PERIOD 241 IS REPEATED USING SETTINGS FROM A PREVIOUS STRESS PERIOD.


 STRESS PERIOD 241 IS TRANSIENT


 REUSING WELS FROM LAST STRESS PERIOD

 REUSING DRNS FROM LAST STRESS PERIOD

 REUSING RCHS FROM LAST STRESS PERIOD


  VOLUME BUDGET FOR ENTIRE MODEL AT END OF TIME STEP    1, STRESS PERIOD 241
  ---------------------------------------------------------------------------------------------------

     CUMULATIVE VOLUME      L**3       RATES FOR THIS TIME STEP      L**3/T          PACKAGE NAME    
     ------------------                 ------------------------                     ----------------

           IN:                                      IN:
           ---                                      ---
              STO-SS =           0.0000                STO-SS =           0.0000     STORAGE         
              STO-SY =   632886946.8705                STO-SY =     2869760.0708     STORAGE         
                 WEL =           0.0000                   WEL =           0.0000     WEL_0           
                 DRN =           0.0000                   DRN =           0.0000     DRN_0           
                 RCH =   265549608.8383                   RCH =     1263596.4191     RCH_0           

            TOTAL IN =   898436555.7088              TOTAL IN =     4133356.4899

          OUT:                                     OUT:
          ----                                     ----
              STO-SS =           0.0000                STO-SS =           0.0000     STORAGE         
              STO-SY =    77892302.4182                STO-SY =       19685.1990     STORAGE         
                 WEL =   145502995.4066                   WEL =     2015705.9953     WEL_0           
                 DRN =   675041257.3182                   DRN =     2097965.2956     DRN_0           
                 RCH =           0.0000                   RCH =           0.0000     RCH_0           

           TOTAL OUT =   898436555.1430             TOTAL OUT =     4133356.4899

            IN - OUT =           0.5658              IN - OUT =      -3.3136E-06

 PERCENT DISCREPANCY =           0.00     PERCENT DISCREPANCY =          -0.00




         TIME SUMMARY AT END OF TIME STEP    1 IN STRESS PERIOD  241
                          TIME STEP LENGTH =    1.00000    
                        STRESS PERIOD TIME =    1.00000    
                     TOTAL SIMULATION TIME =    241.000    

end timestep


start timestep kper="242" kstp="1" mode="normal"


 OUTPUT CONTROL FOR STRESS PERIOD 242 IS REPEATED USING SETTINGS FROM A PREVIOUS STRESS PERIOD.


 STRESS PERIOD 242 IS TRANSIENT


 REUSING WELS FROM LAST STRESS PERIOD

 REUSING DRNS FROM LAST STRESS PERIOD

 REUSING RCHS FROM LAST STRESS PERIOD


  VOLUME BUDGET FOR ENTIRE MODEL AT END OF TIME STEP    1, STRESS PERIOD 242
  ---------------------------------------------------------------------------------------------------

     CUMULATIVE VOLUME      L**3       RATES FOR THIS TIME STEP      L**3/T          PACKAGE NAME    
     ------------------                 ------------------------                     ----------------

           IN:                                      IN:
           ---                                      ---
              STO-SS =           0.0000                STO-SS =           0.0000     STORAGE         
              STO-SY =   635809335.3513                STO-SY =     2922388.4808     STORAGE         
                 WEL =           0.0000                   WEL =           0.0000     WEL_0           
                 DRN =           0.0000                   DRN =           0.0000     DRN_0           
                 RCH =   266820321.6115                   RCH =     1270712.7732     RCH_0           

            TOTAL IN =   902629656.9628              TOTAL IN =     4193101.2539

          OUT:                                     OUT:
          ----                                     ----
              STO-SS =           0.0000                STO-SS =           0.0000     STORAGE         
              STO-SY =    77909757.4345                STO-SY =       17455.0163     STORAGE         
                 WEL =   147585833.1969                   WEL =     2082837.7903     WEL_0           
                 DRN =   677134065.7656                   DRN =     2092808.4474     DRN_0           
                 RCH =           0.0000                   RCH =           0.0000     RCH_0           

           TOTAL OUT =   902629656.3970             TOTAL OUT =     4193101.2539

            IN - OUT =           0.5658              IN - OUT =       3.6303E-06

 PERCENT DISCREPANCY =           0.00     PERCENT DISCREPANCY =           0.00




         TIME SUMMARY AT END OF TIME STEP    1 IN STRESS PERIOD  242
                          TIME STEP LENGTH =    1.00000    
                        STRESS PERIOD TIME =    1.00000    
                     TOTAL SIMULATION TIME =    242.000    

end timestep


start timestep kper="243" kstp="1" mode="normal"


 OUTPUT CONTROL FOR STRESS PERIOD 243 IS REPEATED USING SETTINGS FROM A PREVIOUS STRESS PERIOD.


 STRESS PERIOD 243 IS TRANSIENT


 REUSING WELS FROM LAST STRESS PERIOD

 REUSING DRNS FROM LAST STRESS PERIOD

 REUSING RCHS FROM LAST STRESS PERIOD


  VOLUME BUDGET FOR ENTIRE MODEL AT END OF TIME STEP    1, STRESS PERIOD 243
  ---------------------------------------------------------------------------------------------------

     CUMULATIVE VOLUME      L**3       RATES FOR THIS TIME STEP      L**3/T          PACKAGE NAME    
     ------------------                 ------------------------                     ----------------

           IN:                                      IN:
           ---                                      ---
              STO-SS =           0.0000                STO-SS =           0.0000     STORAGE         
              STO-SY =   638662761.8962                STO-SY =     2853426.5449     STORAGE         
                 WEL =           0.0000                   WEL =           0.0000     WEL_0           
                 DRN =           0.0000                   DRN =           0.0000     DRN_0           
                 RCH =   268088194.2237                   RCH =     1267872.6122     RCH_0           

            TOTAL IN =   906750956.1199              TOTAL IN =     4121299.1571

          OUT:                                     OUT:
          ----                                     ----
              STO-SS =           0.0000                STO-SS =           0.0000     STORAGE         
              STO-SY =    77929211.6943                STO-SY =       19454.2598     STORAGE         
                 WEL =   149599990.6642                   WEL =     2014157.4673     WEL_0           
                 DRN =   679221753.1957                   DRN =     2087687.4300     DRN_0           
                 RCH =           0.0000                   RCH =           0.0000     RCH_0           

           TOTAL OUT =   906750955.5541             TOTAL OUT =     4121299.1571

            IN - OUT =           0.5658              IN - OUT =       1.4296E-06

 PERCENT DISCREPANCY =           0.00     PERCENT DISCREPANCY =           0.00




         TIME SUMMARY AT END OF TIME STEP    1 IN STRESS PERIOD  243
                          TIME STEP LENGTH =    1.00000    
                        STRESS PERIOD TIME =    1.00000    
                     TOTAL SIMULATION TIME =    243.000    

end timestep


start timestep kper="244" kstp="1" mode="normal"


 OUTPUT CONTROL FOR STRESS PERIOD 244 IS REPEATED USING SETTINGS FROM A PREVIOUS STRESS PERIOD.


 STRESS PERIOD 244 IS TRANSIENT


 REUSING WELS FROM LAST STRESS PERIOD

 REUSING DRNS FROM LAST STRESS PERIOD

 REUSING RCHS FROM LAST STRESS PERIOD


  VOLUME BUDGET FOR ENTIRE MODEL AT END OF TIME STEP    1, STRESS PERIOD 244
  ---------------------------------------------------------------------------------------------------

     CUMULATIVE VOLUME      L**3       RATES FOR THIS TIME STEP      L**3/T          PACKAGE NAME    
     ------------------                 ------------------------                     ----------------

           IN:                                      IN:
           ---                                      ---
              STO-SS =           0.0000                STO-SS =           0.0000     STORAGE         
              STO-SY =   641579017.2895                STO-SY =     2916255.3933     STORAGE         
                 WEL =           0.0000                   WEL =           0.0000     WEL_0           
                 DRN =           0.0000                   DRN =           0.0000     DRN_0           
                 RCH =   269311595.3427                   RCH =     1223401.1189     RCH_0           

            TOTAL IN =   910890612.6321              TOTAL IN =     4139656.5122

          OUT:                                     OUT:
          ----                                     ----
              STO-SS =           0.0000                STO-SS =           0.0000     STORAGE         
              STO-SY =    77947958.5582                STO-SY =       18746.8639     STORAGE         
                 WEL =   151659854.1069                   WEL =     2059863.4427     WEL_0           
                 DRN =   681282799.4013                   DRN =     2061046.2056     DRN_0           
                 RCH =           0.0000                   RCH =           0.0000     RCH_0           

           TOTAL OUT =   910890612.0663             TOTAL OUT =     4139656.5122

            IN - OUT =           0.5658              IN - OUT =      -9.8720E-08

 PERCENT DISCREPANCY =           0.00     PERCENT DISCREPANCY =          -0.00




         TIME SUMMARY AT END OF TIME STEP    1 IN STRESS PERIOD  244
                          TIME STEP LENGTH =    1.00000    
                        STRESS PERIOD TIME =    1.00000    
                     TOTAL SIMULATION TIME =    244.000    

end timestep


start timestep kper="245" kstp="1" mode="normal"


 OUTPUT CONTROL FOR STRESS PERIOD 245 IS REPEATED USING SETTINGS FROM A PREVIOUS STRESS PERIOD.


 STRESS PERIOD 245 IS TRANSIENT


 REUSING WELS FROM LAST STRESS PERIOD

 REUSING DRNS FROM LAST STRESS PERIOD

 REUSING RCHS FROM LAST STRESS PERIOD


  VOLUME BUDGET FOR ENTIRE MODEL AT END OF TIME STEP    1, STRESS PERIOD 245
  ---------------------------------------------------------------------------------------------------

     CUMULATIVE VOLUME      L**3       RATES FOR THIS TIME STEP      L**3/T          PACKAGE NAME    
     ------------------                 ------------------------                     ----------------

           IN:                                      IN:
           ---                                      ---
              STO-SS =           0.0000                STO-SS =           0.0000     STORAGE         
              STO-SY =   644574566.5069                STO-SY =     2995549.2174     STORAGE         
                 WEL =           0.0000                   WEL =           0.0000     WEL_0           
                 DRN =           0.0000                   DRN =           0.0000     DRN_0           
                 RCH =   270553356.9730                   RCH =     1241761.6304     RCH_0           

            TOTAL IN =   915127923.4800              TOTAL IN =     4237310.8478

          OUT:                                     OUT:
          ----                                     ----
              STO-SS =           0.0000                STO-SS =           0.0000     STORAGE         
              STO-SY =    77966011.5378                STO-SY =       18052.9797     STORAGE         
                 WEL =   153840848.3751                   WEL =     2180994.2682     WEL_0           
                 DRN =   683321063.0012                   DRN =     2038263.5999     DRN_0           
                 RCH =           0.0000                   RCH =           0.0000     RCH_0           

           TOTAL OUT =   915127922.9142             TOTAL OUT =     4237310.8478

            IN - OUT =           0.5658              IN - OUT =       7.5903E-07

 PERCENT DISCREPANCY =           0.00     PERCENT DISCREPANCY =           0.00




         TIME SUMMARY AT END OF TIME STEP    1 IN STRESS PERIOD  245
                          TIME STEP LENGTH =    1.00000    
                        STRESS PERIOD TIME =    1.00000    
                     TOTAL SIMULATION TIME =    245.000    

end timestep


start timestep kper="246" kstp="1" mode="normal"


 OUTPUT CONTROL FOR STRESS PERIOD 246 IS REPEATED USING SETTINGS FROM A PREVIOUS STRESS PERIOD.


 STRESS PERIOD 246 IS TRANSIENT


 REUSING WELS FROM LAST STRESS PERIOD

 REUSING DRNS FROM LAST STRESS PERIOD

 REUSING RCHS FROM LAST STRESS PERIOD


  VOLUME BUDGET FOR ENTIRE MODEL AT END OF TIME STEP    1, STRESS PERIOD 246
  ---------------------------------------------------------------------------------------------------

     CUMULATIVE VOLUME      L**3       RATES FOR THIS TIME STEP      L**3/T          PACKAGE NAME    
     ------------------                 ------------------------                     ----------------

           IN:                                      IN:
           ---                                      ---
              STO-SS =           0.0000                STO-SS =           0.0000     STORAGE         
              STO-SY =   647538037.1922                STO-SY =     2963470.6852     STORAGE         
                 WEL =           0.0000                   WEL =           0.0000     WEL_0           
                 DRN =           0.0000                   DRN =           0.0000     DRN_0           
                 RCH =   271787610.5505                   RCH =     1234253.5775     RCH_0           

            TOTAL IN =   919325647.7427              TOTAL IN =     4197724.2627

          OUT:                                     OUT:
          ----                                     ----
              STO-SS =           0.0000                STO-SS =           0.0000     STORAGE         
              STO-SY =    77984208.8893                STO-SY =       18197.3515     STORAGE         
                 WEL =   155991325.3388                   WEL =     2150476.9637     WEL_0           
                 DRN =   685350112.9488                   DRN =     2029049.9476     DRN_0           
                 RCH =           0.0000                   RCH =           0.0000     RCH_0           

           TOTAL OUT =   919325647.1769             TOTAL OUT =     4197724.2627

            IN - OUT =           0.5658              IN - OUT =      -2.3190E-07

 PERCENT DISCREPANCY =           0.00     PERCENT DISCREPANCY =          -0.00




         TIME SUMMARY AT END OF TIME STEP    1 IN STRESS PERIOD  246
                          TIME STEP LENGTH =    1.00000    
                        STRESS PERIOD TIME =    1.00000    
                     TOTAL SIMULATION TIME =    246.000    

end timestep


start timestep kper="247" kstp="1" mode="normal"


 OUTPUT CONTROL FOR STRESS PERIOD 247 IS REPEATED USING SETTINGS FROM A PREVIOUS STRESS PERIOD.


 STRESS PERIOD 247 IS TRANSIENT


 REUSING WELS FROM LAST STRESS PERIOD

 REUSING DRNS FROM LAST STRESS PERIOD

 REUSING RCHS FROM LAST STRESS PERIOD


  VOLUME BUDGET FOR ENTIRE MODEL AT END OF TIME STEP    1, STRESS PERIOD 247
  ---------------------------------------------------------------------------------------------------

     CUMULATIVE VOLUME      L**3       RATES FOR THIS TIME STEP      L**3/T          PACKAGE NAME    
     ------------------                 ------------------------                     ----------------

           IN:                                      IN:
           ---                                      ---
              STO-SS =           0.0000                STO-SS =           0.0000     STORAGE         
              STO-SY =   650469909.4013                STO-SY =     2931872.2092     STORAGE         
                 WEL =           0.0000                   WEL =           0.0000     WEL_0           
                 DRN =           0.0000                   DRN =           0.0000     DRN_0           
                 RCH =   272999919.0831                   RCH =     1212308.5326     RCH_0           

            TOTAL IN =   923469828.4845              TOTAL IN =     4144180.7418

          OUT:                                     OUT:
          ----                                     ----
              STO-SS =           0.0000                STO-SS =           0.0000     STORAGE         
              STO-SY =    78003369.6077                STO-SY =       19160.7184     STORAGE         
                 WEL =   158085727.5656                   WEL =     2094402.2268     WEL_0           
                 DRN =   687380730.7453                   DRN =     2030617.7966     DRN_0           
                 RCH =           0.0000                   RCH =           0.0000     RCH_0           

           TOTAL OUT =   923469827.9186             TOTAL OUT =     4144180.7418

            IN - OUT =           0.5658              IN - OUT =       1.6163E-06

 PERCENT DISCREPANCY =           0.00     PERCENT DISCREPANCY =           0.00




         TIME SUMMARY AT END OF TIME STEP    1 IN STRESS PERIOD  247
                          TIME STEP LENGTH =    1.00000    
                        STRESS PERIOD TIME =    1.00000    
                     TOTAL SIMULATION TIME =    247.000    

end timestep


start timestep kper="248" kstp="1" mode="normal"


 OUTPUT CONTROL FOR STRESS PERIOD 248 IS REPEATED USING SETTINGS FROM A PREVIOUS STRESS PERIOD.


 STRESS PERIOD 248 IS TRANSIENT


 REUSING WELS FROM LAST STRESS PERIOD

 REUSING DRNS FROM LAST STRESS PERIOD

 REUSING RCHS FROM LAST STRESS PERIOD


  VOLUME BUDGET FOR ENTIRE MODEL AT END OF TIME STEP    1, STRESS PERIOD 248
  ---------------------------------------------------------------------------------------------------

     CUMULATIVE VOLUME      L**3       RATES FOR THIS TIME STEP      L**3/T          PACKAGE NAME    
     ------------------                 ------------------------                     ----------------

           IN:                                      IN:
           ---                                      ---
              STO-SS =           0.0000                STO-SS =           0.0000     STORAGE         
              STO-SY =   653421715.6844                STO-SY =     2951806.2830     STORAGE         
                 WEL =           0.0000                   WEL =           0.0000     WEL_0           
                 DRN =           0.0000                   DRN =           0.0000     DRN_0           
                 RCH =   274213743.7561                   RCH =     1213824.6730     RCH_0           

            TOTAL IN =   927635459.4405              TOTAL IN =     4165630.9560

          OUT:                                     OUT:
          ----                                     ----
              STO-SS =           0.0000                STO-SS =           0.0000     STORAGE         
              STO-SY =    78018697.8870                STO-SY =       15328.2793     STORAGE         
                 WEL =   160202523.7314                   WEL =     2116796.1657     WEL_0           
                 DRN =   689414237.2563                   DRN =     2033506.5110     DRN_0           
                 RCH =           0.0000                   RCH =           0.0000     RCH_0           

           TOTAL OUT =   927635458.8747             TOTAL OUT =     4165630.9560

            IN - OUT =           0.5658              IN - OUT =       1.3290E-06

 PERCENT DISCREPANCY =           0.00     PERCENT DISCREPANCY =           0.00




         TIME SUMMARY AT END OF TIME STEP    1 IN STRESS PERIOD  248
                          TIME STEP LENGTH =    1.00000    
                        STRESS PERIOD TIME =    1.00000    
                     TOTAL SIMULATION TIME =    248.000    

end timestep


start timestep kper="249" kstp="1" mode="normal"


 OUTPUT CONTROL FOR STRESS PERIOD 249 IS REPEATED USING SETTINGS FROM A PREVIOUS STRESS PERIOD.


 STRESS PERIOD 249 IS TRANSIENT


 REUSING WELS FROM LAST STRESS PERIOD

 REUSING DRNS FROM LAST STRESS PERIOD

 REUSING RCHS FROM LAST STRESS PERIOD


  VOLUME BUDGET FOR ENTIRE MODEL AT END OF TIME STEP    1, STRESS PERIOD 249
  ---------------------------------------------------------------------------------------------------

     CUMULATIVE VOLUME      L**3       RATES FOR THIS TIME STEP      L**3/T          PACKAGE NAME    
     ------------------                 ------------------------                     ----------------

           IN:                                      IN:
           ---                                      ---
              STO-SS =           0.0000                STO-SS =           0.0000     STORAGE         
              STO-SY =   656400009.7622                STO-SY =     2978294.0779     STORAGE         
                 WEL =           0.0000                   WEL =           0.0000     WEL_0           
                 DRN =           0.0000                   DRN =           0.0000     DRN_0           
                 RCH =   275417308.4949                   RCH =     1203564.7388     RCH_0           

            TOTAL IN =   931817318.2571              TOTAL IN =     4181858.8166

          OUT:                                     OUT:
          ----                                     ----
              STO-SS =           0.0000                STO-SS =           0.0000     STORAGE         
              STO-SY =    78038441.8911                STO-SY =       19744.0041     STORAGE         
                 WEL =   162367707.4109                   WEL =     2165183.6796     WEL_0           
                 DRN =   691411168.3892                   DRN =     1996931.1329     DRN_0           
                 RCH =           0.0000                   RCH =           0.0000     RCH_0           

           TOTAL OUT =   931817317.6913             TOTAL OUT =     4181858.8166

            IN - OUT =           0.5658              IN - OUT =       9.6532E-07

 PERCENT DISCREPANCY =           0.00     PERCENT DISCREPANCY =           0.00




         TIME SUMMARY AT END OF TIME STEP    1 IN STRESS PERIOD  249
                          TIME STEP LENGTH =    1.00000    
                        STRESS PERIOD TIME =    1.00000    
                     TOTAL SIMULATION TIME =    249.000    

end timestep


start timestep kper="250" kstp="1" mode="normal"


 OUTPUT CONTROL FOR STRESS PERIOD 250 IS REPEATED USING SETTINGS FROM A PREVIOUS STRESS PERIOD.


 STRESS PERIOD 250 IS TRANSIENT


 REUSING WELS FROM LAST STRESS PERIOD

 REUSING DRNS FROM LAST STRESS PERIOD

 REUSING RCHS FROM LAST STRESS PERIOD


  VOLUME BUDGET FOR ENTIRE MODEL AT END OF TIME STEP    1, STRESS PERIOD 250
  ---------------------------------------------------------------------------------------------------

     CUMULATIVE VOLUME      L**3       RATES FOR THIS TIME STEP      L**3/T          PACKAGE NAME    
     ------------------                 ------------------------                     ----------------

           IN:                                      IN:
           ---                                      ---
              STO-SS =           0.0000                STO-SS =           0.0000     STORAGE         
              STO-SY =   659388648.4777                STO-SY =     2988638.7155     STORAGE         
                 WEL =           0.0000                   WEL =           0.0000     WEL_0           
                 DRN =           0.0000                   DRN =           0.0000     DRN_0           
                 RCH =   276622644.3466                   RCH =     1205335.8517     RCH_0           

            TOTAL IN =   936011292.8243              TOTAL IN =     4193974.5672

          OUT:                                     OUT:
          ----                                     ----
              STO-SS =           0.0000                STO-SS =           0.0000     STORAGE         
              STO-SY =    78054669.8360                STO-SY =       16227.9448     STORAGE         
                 WEL =   164548189.4354                   WEL =     2180482.0245     WEL_0           
                 DRN =   693408432.9871                   DRN =     1997264.5979     DRN_0           
                 RCH =           0.0000                   RCH =           0.0000     RCH_0           

           TOTAL OUT =   936011292.2585             TOTAL OUT =     4193974.5672

            IN - OUT =           0.5658              IN - OUT =       1.6531E-06

 PERCENT DISCREPANCY =           0.00     PERCENT DISCREPANCY =           0.00




         TIME SUMMARY AT END OF TIME STEP    1 IN STRESS PERIOD  250
                          TIME STEP LENGTH =    1.00000    
                        STRESS PERIOD TIME =    1.00000    
                     TOTAL SIMULATION TIME =    250.000    

end timestep


start timestep kper="251" kstp="1" mode="normal"


 OUTPUT CONTROL FOR STRESS PERIOD 251 IS REPEATED USING SETTINGS FROM A PREVIOUS STRESS PERIOD.


 STRESS PERIOD 251 IS TRANSIENT


 REUSING WELS FROM LAST STRESS PERIOD

 REUSING DRNS FROM LAST STRESS PERIOD

 REUSING RCHS FROM LAST STRESS PERIOD


  VOLUME BUDGET FOR ENTIRE MODEL AT END OF TIME STEP    1, STRESS PERIOD 251
  ---------------------------------------------------------------------------------------------------

     CUMULATIVE VOLUME      L**3       RATES FOR THIS TIME STEP      L**3/T          PACKAGE NAME    
     ------------------                 ------------------------                     ----------------

           IN:                                      IN:
           ---                                      ---
              STO-SS =           0.0000                STO-SS =           0.0000     STORAGE         
              STO-SY =   662385540.7454                STO-SY =     2996892.2677     STORAGE         
                 WEL =           0.0000                   WEL =           0.0000     WEL_0           
                 DRN =           0.0000                   DRN =           0.0000     DRN_0           
                 RCH =   277802705.1766                   RCH =     1180060.8300     RCH_0           

            TOTAL IN =   940188245.9220              TOTAL IN =     4176953.0977

          OUT:                                     OUT:
          ----                                     ----
              STO-SS =           0.0000                STO-SS =           0.0000     STORAGE         
              STO-SY =    78070852.6280                STO-SY =       16182.7921     STORAGE         
                 WEL =   166729633.3922                   WEL =     2181443.9568     WEL_0           
                 DRN =   695387759.3360                   DRN =     1979326.3488     DRN_0           
                 RCH =           0.0000                   RCH =           0.0000     RCH_0           

           TOTAL OUT =   940188245.3562             TOTAL OUT =     4176953.0977

            IN - OUT =           0.5658              IN - OUT =       8.5775E-07

 PERCENT DISCREPANCY =           0.00     PERCENT DISCREPANCY =           0.00




         TIME SUMMARY AT END OF TIME STEP    1 IN STRESS PERIOD  251
                          TIME STEP LENGTH =    1.00000    
                        STRESS PERIOD TIME =    1.00000    
                     TOTAL SIMULATION TIME =    251.000    

end timestep


start timestep kper="252" kstp="1" mode="normal"


 OUTPUT CONTROL FOR STRESS PERIOD 252 IS REPEATED USING SETTINGS FROM A PREVIOUS STRESS PERIOD.


 STRESS PERIOD 252 IS TRANSIENT


 REUSING WELS FROM LAST STRESS PERIOD

 REUSING DRNS FROM LAST STRESS PERIOD

 REUSING RCHS FROM LAST STRESS PERIOD


  VOLUME BUDGET FOR ENTIRE MODEL AT END OF TIME STEP    1, STRESS PERIOD 252
  ---------------------------------------------------------------------------------------------------

     CUMULATIVE VOLUME      L**3       RATES FOR THIS TIME STEP      L**3/T          PACKAGE NAME    
     ------------------                 ------------------------                     ----------------

           IN:                                      IN:
           ---                                      ---
              STO-SS =           0.0000                STO-SS =           0.0000     STORAGE         
              STO-SY =   665407726.5501                STO-SY =     3022185.8047     STORAGE         
                 WEL =           0.0000                   WEL =           0.0000     WEL_0           
                 DRN =           0.0000                   DRN =           0.0000     DRN_0           
                 RCH =   278990579.2422                   RCH =     1187874.0655     RCH_0           

            TOTAL IN =   944398305.7922              TOTAL IN =     4210059.8702

          OUT:                                     OUT:
          ----                                     ----
              STO-SS =           0.0000                STO-SS =           0.0000     STORAGE         
              STO-SY =    78086400.5430                STO-SY =       15547.9150     STORAGE         
                 WEL =   168959969.3735                   WEL =     2230335.9812     WEL_0           
                 DRN =   697351935.3100                   DRN =     1964175.9740     DRN_0           
                 RCH =           0.0000                   RCH =           0.0000     RCH_0           

           TOTAL OUT =   944398305.2264             TOTAL OUT =     4210059.8702

            IN - OUT =           0.5658              IN - OUT =      -9.3319E-07

 PERCENT DISCREPANCY =           0.00     PERCENT DISCREPANCY =          -0.00




         TIME SUMMARY AT END OF TIME STEP    1 IN STRESS PERIOD  252
                          TIME STEP LENGTH =    1.00000    
                        STRESS PERIOD TIME =    1.00000    
                     TOTAL SIMULATION TIME =    252.000    

end timestep


start timestep kper="253" kstp="1" mode="normal"


 OUTPUT CONTROL FOR STRESS PERIOD 253 IS REPEATED USING SETTINGS FROM A PREVIOUS STRESS PERIOD.


 STRESS PERIOD 253 IS TRANSIENT


 REUSING WELS FROM LAST STRESS PERIOD

 REUSING DRNS FROM LAST STRESS PERIOD

 REUSING RCHS FROM LAST STRESS PERIOD


  VOLUME BUDGET FOR ENTIRE MODEL AT END OF TIME STEP    1, STRESS PERIOD 253
  ---------------------------------------------------------------------------------------------------

     CUMULATIVE VOLUME      L**3       RATES FOR THIS TIME STEP      L**3/T          PACKAGE NAME    
     ------------------                 ------------------------                     ----------------

           IN:                                      IN:
           ---                                      ---
              STO-SS =           0.0000                STO-SS =           0.0000     STORAGE         
              STO-SY =   668362447.0661                STO-SY =     2954720.5160     STORAGE         
                 WEL =           0.0000                   WEL =           0.0000     WEL_0           
                 DRN =           0.0000                   DRN =           0.0000     DRN_0           
                 RCH =   280146733.6368                   RCH =     1156154.3946     RCH_0           

            TOTAL IN =   948509180.7029              TOTAL IN =     4110874.9107

          OUT:                                     OUT:
          ----                                     ----
              STO-SS =           0.0000                STO-SS =           0.0000     STORAGE         
              STO-SY =    78101560.4591                STO-SY =       15159.9160     STORAGE         
                 WEL =   171089361.5960                   WEL =     2129392.2225     WEL_0           
                 DRN =   699318258.0820                   DRN =     1966322.7721     DRN_0           
                 RCH =           0.0000                   RCH =           0.0000     RCH_0           

           TOTAL OUT =   948509180.1371             TOTAL OUT =     4110874.9107

            IN - OUT =           0.5658              IN - OUT =       2.8848E-06

 PERCENT DISCREPANCY =           0.00     PERCENT DISCREPANCY =           0.00




         TIME SUMMARY AT END OF TIME STEP    1 IN STRESS PERIOD  253
                          TIME STEP LENGTH =    1.00000    
                        STRESS PERIOD TIME =    1.00000    
                     TOTAL SIMULATION TIME =    253.000    

end timestep


start timestep kper="254" kstp="1" mode="normal"


 OUTPUT CONTROL FOR STRESS PERIOD 254 IS REPEATED USING SETTINGS FROM A PREVIOUS STRESS PERIOD.


 STRESS PERIOD 254 IS TRANSIENT


 REUSING WELS FROM LAST STRESS PERIOD

 REUSING DRNS FROM LAST STRESS PERIOD

 REUSING RCHS FROM LAST STRESS PERIOD


  VOLUME BUDGET FOR ENTIRE MODEL AT END OF TIME STEP    1, STRESS PERIOD 254
  ---------------------------------------------------------------------------------------------------

     CUMULATIVE VOLUME      L**3       RATES FOR THIS TIME STEP      L**3/T          PACKAGE NAME    
     ------------------                 ------------------------                     ----------------

           IN:                                      IN:
           ---                                      ---
              STO-SS =           0.0000                STO-SS =           0.0000     STORAGE         
              STO-SY =   671327908.4428                STO-SY =     2965461.3767     STORAGE         
                 WEL =           0.0000                   WEL =           0.0000     WEL_0           
                 DRN =           0.0000                   DRN =           0.0000     DRN_0           
                 RCH =   281353677.5848                   RCH =     1206943.9480     RCH_0           

            TOTAL IN =   952681586.0276              TOTAL IN =     4172405.3247

          OUT:                                     OUT:
          ----                                     ----
              STO-SS =           0.0000                STO-SS =           0.0000     STORAGE         
              STO-SY =    78122067.7619                STO-SY =       20507.3029     STORAGE         
                 WEL =   173265875.5839                   WEL =     2176513.9879     WEL_0           
                 DRN =   701293642.1160                   DRN =     1975384.0339     DRN_0           
                 RCH =           0.0000                   RCH =           0.0000     RCH_0           

           TOTAL OUT =   952681585.4618             TOTAL OUT =     4172405.3247

            IN - OUT =           0.5658              IN - OUT =      -5.6857E-07

 PERCENT DISCREPANCY =           0.00     PERCENT DISCREPANCY =          -0.00




         TIME SUMMARY AT END OF TIME STEP    1 IN STRESS PERIOD  254
                          TIME STEP LENGTH =    1.00000    
                        STRESS PERIOD TIME =    1.00000    
                     TOTAL SIMULATION TIME =    254.000    

end timestep


start timestep kper="255" kstp="1" mode="normal"


 OUTPUT CONTROL FOR STRESS PERIOD 255 IS REPEATED USING SETTINGS FROM A PREVIOUS STRESS PERIOD.


 STRESS PERIOD 255 IS TRANSIENT


 REUSING WELS FROM LAST STRESS PERIOD

 REUSING DRNS FROM LAST STRESS PERIOD

 REUSING RCHS FROM LAST STRESS PERIOD


  VOLUME BUDGET FOR ENTIRE MODEL AT END OF TIME STEP    1, STRESS PERIOD 255
  ---------------------------------------------------------------------------------------------------

     CUMULATIVE VOLUME      L**3       RATES FOR THIS TIME STEP      L**3/T          PACKAGE NAME    
     ------------------                 ------------------------                     ----------------

           IN:                                      IN:
           ---                                      ---
              STO-SS =           0.0000                STO-SS =           0.0000     STORAGE         
              STO-SY =   674224241.0297                STO-SY =     2896332.5869     STORAGE         
                 WEL =           0.0000                   WEL =           0.0000     WEL_0           
                 DRN =           0.0000                   DRN =           0.0000     DRN_0           
                 RCH =   282522729.5684                   RCH =     1169051.9836     RCH_0           

            TOTAL IN =   956746970.5980              TOTAL IN =     4065384.5705

          OUT:                                     OUT:
          ----                                     ----
              STO-SS =           0.0000                STO-SS =           0.0000     STORAGE         
              STO-SY =    78132428.8575                STO-SY =       10361.0955     STORAGE         
                 WEL =   175338578.6563                   WEL =     2072703.0724     WEL_0           
                 DRN =   703275962.5185                   DRN =     1982320.4025     DRN_0           
                 RCH =           0.0000                   RCH =           0.0000     RCH_0           

           TOTAL OUT =   956746970.0322             TOTAL OUT =     4065384.5705

            IN - OUT =           0.5658              IN - OUT =       5.6298E-07

 PERCENT DISCREPANCY =           0.00     PERCENT DISCREPANCY =           0.00




         TIME SUMMARY AT END OF TIME STEP    1 IN STRESS PERIOD  255
                          TIME STEP LENGTH =    1.00000    
                        STRESS PERIOD TIME =    1.00000    
                     TOTAL SIMULATION TIME =    255.000    

end timestep


start timestep kper="256" kstp="1" mode="normal"


 OUTPUT CONTROL FOR STRESS PERIOD 256 IS REPEATED USING SETTINGS FROM A PREVIOUS STRESS PERIOD.


 STRESS PERIOD 256 IS TRANSIENT


 REUSING WELS FROM LAST STRESS PERIOD

 REUSING DRNS FROM LAST STRESS PERIOD

 REUSING RCHS FROM LAST STRESS PERIOD


  VOLUME BUDGET FOR ENTIRE MODEL AT END OF TIME STEP    1, STRESS PERIOD 256
  ---------------------------------------------------------------------------------------------------

     CUMULATIVE VOLUME      L**3       RATES FOR THIS TIME STEP      L**3/T          PACKAGE NAME    
     ------------------                 ------------------------                     ----------------

           IN:                                      IN:
           ---                                      ---
              STO-SS =           0.0000                STO-SS =           0.0000     STORAGE         
              STO-SY =   677011628.8814                STO-SY =     2787387.8517     STORAGE         
                 WEL =           0.0000                   WEL =           0.0000     WEL_0           
                 DRN =           0.0000                   DRN =           0.0000     DRN_0           
                 RCH =   283721979.2746                   RCH =     1199249.7062     RCH_0           

            TOTAL IN =   960733608.1560              TOTAL IN =     3986637.5579

          OUT:                                     OUT:
          ----                                     ----
              STO-SS =           0.0000                STO-SS =           0.0000     STORAGE         
              STO-SY =    78156155.9867                STO-SY =       23727.1292     STORAGE         
                 WEL =   177294804.2262                   WEL =     1956225.5699     WEL_0           
                 DRN =   705282647.3773                   DRN =     2006684.8588     DRN_0           
                 RCH =           0.0000                   RCH =           0.0000     RCH_0           

           TOTAL OUT =   960733607.5902             TOTAL OUT =     3986637.5579

            IN - OUT =           0.5658              IN - OUT =       4.9546E-07

 PERCENT DISCREPANCY =           0.00     PERCENT DISCREPANCY =           0.00




         TIME SUMMARY AT END OF TIME STEP    1 IN STRESS PERIOD  256
                          TIME STEP LENGTH =    1.00000    
                        STRESS PERIOD TIME =    1.00000    
                     TOTAL SIMULATION TIME =    256.000    

end timestep


start timestep kper="257" kstp="1" mode="normal"


 OUTPUT CONTROL FOR STRESS PERIOD 257 IS REPEATED USING SETTINGS FROM A PREVIOUS STRESS PERIOD.


 STRESS PERIOD 257 IS TRANSIENT


 REUSING WELS FROM LAST STRESS PERIOD

 REUSING DRNS FROM LAST STRESS PERIOD

 REUSING RCHS FROM LAST STRESS PERIOD


  VOLUME BUDGET FOR ENTIRE MODEL AT END OF TIME STEP    1, STRESS PERIOD 257
  ---------------------------------------------------------------------------------------------------

     CUMULATIVE VOLUME      L**3       RATES FOR THIS TIME STEP      L**3/T          PACKAGE NAME    
     ------------------                 ------------------------                     ----------------

           IN:                                      IN:
           ---                                      ---
              STO-SS =           0.0000                STO-SS =           0.0000     STORAGE         
              STO-SY =   679908927.2199                STO-SY =     2897298.3385     STORAGE         
                 WEL =           0.0000                   WEL =           0.0000     WEL_0           
                 DRN =           0.0000                   DRN =           0.0000     DRN_0           
                 RCH =   284911170.8875                   RCH =     1189191.6130     RCH_0           

            TOTAL IN =   964820098.1074              TOTAL IN =     4086489.9515

          OUT:                                     OUT:
          ----                                     ----
              STO-SS =           0.0000                STO-SS =           0.0000     STORAGE         
              STO-SY =    78168795.2076                STO-SY =       12639.2210     STORAGE         
                 WEL =   179376324.2302                   WEL =     2081520.0040     WEL_0           
                 DRN =   707274978.1038                   DRN =     1992330.7265     DRN_0           
                 RCH =           0.0000                   RCH =           0.0000     RCH_0           

           TOTAL OUT =   964820097.5416             TOTAL OUT =     4086489.9515

            IN - OUT =           0.5658              IN - OUT =       7.1712E-08

 PERCENT DISCREPANCY =           0.00     PERCENT DISCREPANCY =           0.00




         TIME SUMMARY AT END OF TIME STEP    1 IN STRESS PERIOD  257
                          TIME STEP LENGTH =    1.00000    
                        STRESS PERIOD TIME =    1.00000    
                     TOTAL SIMULATION TIME =    257.000    

end timestep


start timestep kper="258" kstp="1" mode="normal"


 OUTPUT CONTROL FOR STRESS PERIOD 258 IS REPEATED USING SETTINGS FROM A PREVIOUS STRESS PERIOD.


 STRESS PERIOD 258 IS TRANSIENT


 REUSING WELS FROM LAST STRESS PERIOD

 REUSING DRNS FROM LAST STRESS PERIOD

 REUSING RCHS FROM LAST STRESS PERIOD


  VOLUME BUDGET FOR ENTIRE MODEL AT END OF TIME STEP    1, STRESS PERIOD 258
  ---------------------------------------------------------------------------------------------------

     CUMULATIVE VOLUME      L**3       RATES FOR THIS TIME STEP      L**3/T          PACKAGE NAME    
     ------------------                 ------------------------                     ----------------

           IN:                                      IN:
           ---                                      ---
              STO-SS =           0.0000                STO-SS =           0.0000     STORAGE         
              STO-SY =   682626089.9953                STO-SY =     2717162.7754     STORAGE         
                 WEL =           0.0000                   WEL =           0.0000     WEL_0           
                 DRN =           0.0000                   DRN =           0.0000     DRN_0           
                 RCH =   286153321.7817                   RCH =     1242150.8941     RCH_0           

            TOTAL IN =   968779411.7770              TOTAL IN =     3959313.6696

          OUT:                                     OUT:
          ----                                     ----
              STO-SS =           0.0000                STO-SS =           0.0000     STORAGE         
              STO-SY =    78189901.0905                STO-SY =       21105.8829     STORAGE         
                 WEL =   181271285.8089                   WEL =     1894961.5788     WEL_0           
                 DRN =   709318224.3117                   DRN =     2043246.2079     DRN_0           
                 RCH =           0.0000                   RCH =           0.0000     RCH_0           

           TOTAL OUT =   968779411.2112             TOTAL OUT =     3959313.6696

            IN - OUT =           0.5658              IN - OUT =       1.6233E-06

 PERCENT DISCREPANCY =           0.00     PERCENT DISCREPANCY =           0.00




         TIME SUMMARY AT END OF TIME STEP    1 IN STRESS PERIOD  258
                          TIME STEP LENGTH =    1.00000    
                        STRESS PERIOD TIME =    1.00000    
                     TOTAL SIMULATION TIME =    258.000    

end timestep


start timestep kper="259" kstp="1" mode="normal"


 OUTPUT CONTROL FOR STRESS PERIOD 259 IS REPEATED USING SETTINGS FROM A PREVIOUS STRESS PERIOD.


 STRESS PERIOD 259 IS TRANSIENT


 REUSING WELS FROM LAST STRESS PERIOD

 REUSING DRNS FROM LAST STRESS PERIOD

 REUSING RCHS FROM LAST STRESS PERIOD


  VOLUME BUDGET FOR ENTIRE MODEL AT END OF TIME STEP    1, STRESS PERIOD 259
  ---------------------------------------------------------------------------------------------------

     CUMULATIVE VOLUME      L**3       RATES FOR THIS TIME STEP      L**3/T          PACKAGE NAME    
     ------------------                 ------------------------                     ----------------

           IN:                                      IN:
           ---                                      ---
              STO-SS =           0.0000                STO-SS =           0.0000     STORAGE         
              STO-SY =   684958888.0095                STO-SY =     2332798.0142     STORAGE         
                 WEL =           0.0000                   WEL =           0.0000     WEL_0           
                 DRN =           0.0000                   DRN =           0.0000     DRN_0           
                 RCH =   287474136.6789                   RCH =     1320814.8972     RCH_0           

            TOTAL IN =   972433024.6883              TOTAL IN =     3653612.9113

          OUT:                                     OUT:
          ----                                     ----
              STO-SS =           0.0000                STO-SS =           0.0000     STORAGE         
              STO-SY =    78225993.1491                STO-SY =       36092.0585     STORAGE         
                 WEL =   182710919.8010                   WEL =     1439633.9921     WEL_0           
                 DRN =   711496111.1724                   DRN =     2177886.8607     DRN_0           
                 RCH =           0.0000                   RCH =           0.0000     RCH_0           

           TOTAL OUT =   972433024.1225             TOTAL OUT =     3653612.9113

            IN - OUT =           0.5658              IN - OUT =       3.7737E-06

 PERCENT DISCREPANCY =           0.00     PERCENT DISCREPANCY =           0.00




         TIME SUMMARY AT END OF TIME STEP    1 IN STRESS PERIOD  259
                          TIME STEP LENGTH =    1.00000    
                        STRESS PERIOD TIME =    1.00000    
                     TOTAL SIMULATION TIME =    259.000    

end timestep


start timestep kper="260" kstp="1" mode="normal"


 OUTPUT CONTROL FOR STRESS PERIOD 260 IS REPEATED USING SETTINGS FROM A PREVIOUS STRESS PERIOD.


 STRESS PERIOD 260 IS TRANSIENT


 REUSING WELS FROM LAST STRESS PERIOD

 REUSING DRNS FROM LAST STRESS PERIOD

 REUSING RCHS FROM LAST STRESS PERIOD


  VOLUME BUDGET FOR ENTIRE MODEL AT END OF TIME STEP    1, STRESS PERIOD 260
  ---------------------------------------------------------------------------------------------------

     CUMULATIVE VOLUME      L**3       RATES FOR THIS TIME STEP      L**3/T          PACKAGE NAME    
     ------------------                 ------------------------                     ----------------

           IN:                                      IN:
           ---                                      ---
              STO-SS =           0.0000                STO-SS =           0.0000     STORAGE         
              STO-SY =   687334469.4147                STO-SY =     2375581.4052     STORAGE         
                 WEL =           0.0000                   WEL =           0.0000     WEL_0           
                 DRN =           0.0000                   DRN =           0.0000     DRN_0           
                 RCH =   288815744.8209                   RCH =     1341608.1421     RCH_0           

            TOTAL IN =   976150214.2356              TOTAL IN =     3717189.5473

          OUT:                                     OUT:
          ----                                     ----
              STO-SS =           0.0000                STO-SS =           0.0000     STORAGE         
              STO-SY =    78259103.6560                STO-SY =       33110.5069     STORAGE         
                 WEL =   184220122.1956                   WEL =     1509202.3946     WEL_0           
                 DRN =   713670987.8182                   DRN =     2174876.6458     DRN_0           
                 RCH =           0.0000                   RCH =           0.0000     RCH_0           

           TOTAL OUT =   976150213.6698             TOTAL OUT =     3717189.5473

            IN - OUT =           0.5658              IN - OUT =      -1.9539E-06

 PERCENT DISCREPANCY =           0.00     PERCENT DISCREPANCY =          -0.00




         TIME SUMMARY AT END OF TIME STEP    1 IN STRESS PERIOD  260
                          TIME STEP LENGTH =    1.00000    
                        STRESS PERIOD TIME =    1.00000    
                     TOTAL SIMULATION TIME =    260.000    

end timestep


start timestep kper="261" kstp="1" mode="normal"


 OUTPUT CONTROL FOR STRESS PERIOD 261 IS REPEATED USING SETTINGS FROM A PREVIOUS STRESS PERIOD.


 STRESS PERIOD 261 IS TRANSIENT


 REUSING WELS FROM LAST STRESS PERIOD

 REUSING DRNS FROM LAST STRESS PERIOD

 REUSING RCHS FROM LAST STRESS PERIOD


  VOLUME BUDGET FOR ENTIRE MODEL AT END OF TIME STEP    1, STRESS PERIOD 261
  ---------------------------------------------------------------------------------------------------

     CUMULATIVE VOLUME      L**3       RATES FOR THIS TIME STEP      L**3/T          PACKAGE NAME    
     ------------------                 ------------------------                     ----------------

           IN:                                      IN:
           ---                                      ---
              STO-SS =           0.0000                STO-SS =           0.0000     STORAGE         
              STO-SY =   689684413.6664                STO-SY =     2349944.2517     STORAGE         
                 WEL =           0.0000                   WEL =           0.0000     WEL_0           
                 DRN =           0.0000                   DRN =           0.0000     DRN_0           
                 RCH =   290131672.0479                   RCH =     1315927.2269     RCH_0           

            TOTAL IN =   979816085.7142              TOTAL IN =     3665871.4786

          OUT:                                     OUT:
          ----                                     ----
              STO-SS =           0.0000                STO-SS =           0.0000     STORAGE         
              STO-SY =    78298277.4514                STO-SY =       39173.7955     STORAGE         
                 WEL =   185678730.8942                   WEL =     1458608.6986     WEL_0           
                 DRN =   715839076.8028                   DRN =     2168088.9846     DRN_0           
                 RCH =           0.0000                   RCH =           0.0000     RCH_0           

           TOTAL OUT =   979816085.1484             TOTAL OUT =     3665871.4786

            IN - OUT =           0.5658              IN - OUT =       6.2445E-07

 PERCENT DISCREPANCY =           0.00     PERCENT DISCREPANCY =           0.00




         TIME SUMMARY AT END OF TIME STEP    1 IN STRESS PERIOD  261
                          TIME STEP LENGTH =    1.00000    
                        STRESS PERIOD TIME =    1.00000    
                     TOTAL SIMULATION TIME =    261.000    

end timestep


start timestep kper="262" kstp="1" mode="normal"


 OUTPUT CONTROL FOR STRESS PERIOD 262 IS REPEATED USING SETTINGS FROM A PREVIOUS STRESS PERIOD.


 STRESS PERIOD 262 IS TRANSIENT


 REUSING WELS FROM LAST STRESS PERIOD

 REUSING DRNS FROM LAST STRESS PERIOD

 REUSING RCHS FROM LAST STRESS PERIOD


  VOLUME BUDGET FOR ENTIRE MODEL AT END OF TIME STEP    1, STRESS PERIOD 262
  ---------------------------------------------------------------------------------------------------

     CUMULATIVE VOLUME      L**3       RATES FOR THIS TIME STEP      L**3/T          PACKAGE NAME    
     ------------------                 ------------------------                     ----------------

           IN:                                      IN:
           ---                                      ---
              STO-SS =           0.0000                STO-SS =           0.0000     STORAGE         
              STO-SY =   692279880.2964                STO-SY =     2595466.6300     STORAGE         
                 WEL =           0.0000                   WEL =           0.0000     WEL_0           
                 DRN =           0.0000                   DRN =           0.0000     DRN_0           
                 RCH =   291415087.4999                   RCH =     1283415.4520     RCH_0           

            TOTAL IN =   983694967.7963              TOTAL IN =     3878882.0821

          OUT:                                     OUT:
          ----                                     ----
              STO-SS =           0.0000                STO-SS =           0.0000     STORAGE         
              STO-SY =    78318279.4520                STO-SY =       20002.0005     STORAGE         
                 WEL =   187448026.6360                   WEL =     1769295.7418     WEL_0           
                 DRN =   717928661.1425                   DRN =     2089584.3398     DRN_0           
                 RCH =           0.0000                   RCH =           0.0000     RCH_0           

           TOTAL OUT =   983694967.2305             TOTAL OUT =     3878882.0821

            IN - OUT =           0.5658              IN - OUT =       2.5975E-06

 PERCENT DISCREPANCY =           0.00     PERCENT DISCREPANCY =           0.00




         TIME SUMMARY AT END OF TIME STEP    1 IN STRESS PERIOD  262
                          TIME STEP LENGTH =    1.00000    
                        STRESS PERIOD TIME =    1.00000    
                     TOTAL SIMULATION TIME =    262.000    

end timestep


start timestep kper="263" kstp="1" mode="normal"


 OUTPUT CONTROL FOR STRESS PERIOD 263 IS REPEATED USING SETTINGS FROM A PREVIOUS STRESS PERIOD.


 STRESS PERIOD 263 IS TRANSIENT


 REUSING WELS FROM LAST STRESS PERIOD

 REUSING DRNS FROM LAST STRESS PERIOD

 REUSING RCHS FROM LAST STRESS PERIOD


  VOLUME BUDGET FOR ENTIRE MODEL AT END OF TIME STEP    1, STRESS PERIOD 263
  ---------------------------------------------------------------------------------------------------

     CUMULATIVE VOLUME      L**3       RATES FOR THIS TIME STEP      L**3/T          PACKAGE NAME    
     ------------------                 ------------------------                     ----------------

           IN:                                      IN:
           ---                                      ---
              STO-SS =           0.0000                STO-SS =           0.0000     STORAGE         
              STO-SY =   694963158.8140                STO-SY =     2683278.5176     STORAGE         
                 WEL =           0.0000                   WEL =           0.0000     WEL_0           
                 DRN =           0.0000                   DRN =           0.0000     DRN_0           
                 RCH =   292694405.4922                   RCH =     1279317.9923     RCH_0           

            TOTAL IN =   987657564.3062              TOTAL IN =     3962596.5099

          OUT:                                     OUT:
          ----                                     ----
              STO-SS =           0.0000                STO-SS =           0.0000     STORAGE         
              STO-SY =    78336978.7061                STO-SY =       18699.2541     STORAGE         
                 WEL =   189333558.3380                   WEL =     1885531.7020     WEL_0           
                 DRN =   719987026.6964                   DRN =     2058365.5538     DRN_0           
                 RCH =           0.0000                   RCH =           0.0000     RCH_0           

           TOTAL OUT =   987657563.7404             TOTAL OUT =     3962596.5099

            IN - OUT =           0.5658              IN - OUT =       4.9914E-06

 PERCENT DISCREPANCY =           0.00     PERCENT DISCREPANCY =           0.00




         TIME SUMMARY AT END OF TIME STEP    1 IN STRESS PERIOD  263
                          TIME STEP LENGTH =    1.00000    
                        STRESS PERIOD TIME =    1.00000    
                     TOTAL SIMULATION TIME =    263.000    

end timestep


start timestep kper="264" kstp="1" mode="normal"


 OUTPUT CONTROL FOR STRESS PERIOD 264 IS REPEATED USING SETTINGS FROM A PREVIOUS STRESS PERIOD.


 STRESS PERIOD 264 IS TRANSIENT


 REUSING WELS FROM LAST STRESS PERIOD

 REUSING DRNS FROM LAST STRESS PERIOD

 REUSING RCHS FROM LAST STRESS PERIOD


  VOLUME BUDGET FOR ENTIRE MODEL AT END OF TIME STEP    1, STRESS PERIOD 264
  ---------------------------------------------------------------------------------------------------

     CUMULATIVE VOLUME      L**3       RATES FOR THIS TIME STEP      L**3/T          PACKAGE NAME    
     ------------------                 ------------------------                     ----------------

           IN:                                      IN:
           ---                                      ---
              STO-SS =           0.0000                STO-SS =           0.0000     STORAGE         
              STO-SY =   697767583.5074                STO-SY =     2804424.6934     STORAGE         
                 WEL =           0.0000                   WEL =           0.0000     WEL_0           
                 DRN =           0.0000                   DRN =           0.0000     DRN_0           
                 RCH =   293947600.3168                   RCH =     1253194.8246     RCH_0           

            TOTAL IN =   991715183.8242              TOTAL IN =     4057619.5179

          OUT:                                     OUT:
          ----                                     ----
              STO-SS =           0.0000                STO-SS =           0.0000     STORAGE         
              STO-SY =    78351963.0562                STO-SY =       14984.3501     STORAGE         
                 WEL =   191359538.4207                   WEL =     2025980.0827     WEL_0           
                 DRN =   722003681.7814                   DRN =     2016655.0851     DRN_0           
                 RCH =           0.0000                   RCH =           0.0000     RCH_0           

           TOTAL OUT =   991715183.2583             TOTAL OUT =     4057619.5179

            IN - OUT =           0.5658              IN - OUT =       2.1625E-06

 PERCENT DISCREPANCY =           0.00     PERCENT DISCREPANCY =           0.00




         TIME SUMMARY AT END OF TIME STEP    1 IN STRESS PERIOD  264
                          TIME STEP LENGTH =    1.00000    
                        STRESS PERIOD TIME =    1.00000    
                     TOTAL SIMULATION TIME =    264.000    

end timestep


start timestep kper="265" kstp="1" mode="normal"


 OUTPUT CONTROL FOR STRESS PERIOD 265 IS REPEATED USING SETTINGS FROM A PREVIOUS STRESS PERIOD.


 STRESS PERIOD 265 IS TRANSIENT


 REUSING WELS FROM LAST STRESS PERIOD

 REUSING DRNS FROM LAST STRESS PERIOD

 REUSING RCHS FROM LAST STRESS PERIOD


  VOLUME BUDGET FOR ENTIRE MODEL AT END OF TIME STEP    1, STRESS PERIOD 265
  ---------------------------------------------------------------------------------------------------

     CUMULATIVE VOLUME      L**3       RATES FOR THIS TIME STEP      L**3/T          PACKAGE NAME    
     ------------------                 ------------------------                     ----------------

           IN:                                      IN:
           ---                                      ---
              STO-SS =           0.0000                STO-SS =           0.0000     STORAGE         
              STO-SY =   700526013.0639                STO-SY =     2758429.5565     STORAGE         
                 WEL =           0.0000                   WEL =           0.0000     WEL_0           
                 DRN =           0.0000                   DRN =           0.0000     DRN_0           
                 RCH =   295211830.4899                   RCH =     1264230.1731     RCH_0           

            TOTAL IN =   995737843.5539              TOTAL IN =     4022659.7297

          OUT:                                     OUT:
          ----                                     ----
              STO-SS =           0.0000                STO-SS =           0.0000     STORAGE         
              STO-SY =    78374237.0834                STO-SY =       22274.0272     STORAGE         
                 WEL =   193347453.1066                   WEL =     1987914.6859     WEL_0           
                 DRN =   724016152.7981                   DRN =     2012471.0166     DRN_0           
                 RCH =           0.0000                   RCH =           0.0000     RCH_0           

           TOTAL OUT =   995737842.9880             TOTAL OUT =     4022659.7297

            IN - OUT =           0.5658              IN - OUT =       5.4855E-07

 PERCENT DISCREPANCY =           0.00     PERCENT DISCREPANCY =           0.00




         TIME SUMMARY AT END OF TIME STEP    1 IN STRESS PERIOD  265
                          TIME STEP LENGTH =    1.00000    
                        STRESS PERIOD TIME =    1.00000    
                     TOTAL SIMULATION TIME =    265.000    

end timestep


start timestep kper="266" kstp="1" mode="normal"


 OUTPUT CONTROL FOR STRESS PERIOD 266 IS REPEATED USING SETTINGS FROM A PREVIOUS STRESS PERIOD.


 STRESS PERIOD 266 IS TRANSIENT


 REUSING WELS FROM LAST STRESS PERIOD

 REUSING DRNS FROM LAST STRESS PERIOD

 REUSING RCHS FROM LAST STRESS PERIOD


  VOLUME BUDGET FOR ENTIRE MODEL AT END OF TIME STEP    1, STRESS PERIOD 266
  ---------------------------------------------------------------------------------------------------

     CUMULATIVE VOLUME      L**3       RATES FOR THIS TIME STEP      L**3/T          PACKAGE NAME    
     ------------------                 ------------------------                     ----------------

           IN:                                      IN:
           ---                                      ---
              STO-SS =           0.0000                STO-SS =           0.0000     STORAGE         
              STO-SY =   703259616.4817                STO-SY =     2733603.4177     STORAGE         
                 WEL =           0.0000                   WEL =           0.0000     WEL_0           
                 DRN =           0.0000                   DRN =           0.0000     DRN_0           
                 RCH =   296453612.5822                   RCH =     1241782.0923     RCH_0           

            TOTAL IN =   999713229.0639              TOTAL IN =     3975385.5101

          OUT:                                     OUT:
          ----                                     ----
              STO-SS =           0.0000                STO-SS =           0.0000     STORAGE         
              STO-SY =    78393120.7256                STO-SY =       18883.6422     STORAGE         
                 WEL =   195305740.9458                   WEL =     1958287.8393     WEL_0           
                 DRN =   726014366.7868                   DRN =     1998213.9887     DRN_0           
                 RCH =           0.0000                   RCH =           0.0000     RCH_0           

           TOTAL OUT =   999713228.4581             TOTAL OUT =     3975385.4701

            IN - OUT =           0.6058              IN - OUT =       3.9929E-02

 PERCENT DISCREPANCY =           0.00     PERCENT DISCREPANCY =           0.00




         TIME SUMMARY AT END OF TIME STEP    1 IN STRESS PERIOD  266
                          TIME STEP LENGTH =    1.00000    
                        STRESS PERIOD TIME =    1.00000    
                     TOTAL SIMULATION TIME =    266.000    

end timestep


start timestep kper="267" kstp="1" mode="normal"


 OUTPUT CONTROL FOR STRESS PERIOD 267 IS REPEATED USING SETTINGS FROM A PREVIOUS STRESS PERIOD.


 STRESS PERIOD 267 IS TRANSIENT


 REUSING WELS FROM LAST STRESS PERIOD

 REUSING DRNS FROM LAST STRESS PERIOD

 REUSING RCHS FROM LAST STRESS PERIOD


  VOLUME BUDGET FOR ENTIRE MODEL AT END OF TIME STEP    1, STRESS PERIOD 267
  ---------------------------------------------------------------------------------------------------

     CUMULATIVE VOLUME      L**3       RATES FOR THIS TIME STEP      L**3/T          PACKAGE NAME    
     ------------------                 ------------------------                     ----------------

           IN:                                      IN:
           ---                                      ---
              STO-SS =           0.0000                STO-SS =           0.0000     STORAGE         
              STO-SY =   706011075.2496                STO-SY =     2751458.7680     STORAGE         
                 WEL =           0.0000                   WEL =           0.0000     WEL_0           
                 DRN =           0.0000                   DRN =           0.0000     DRN_0           
                 RCH =   297721515.9337                   RCH =     1267903.3515     RCH_0           

            TOTAL IN =  1003732591.1834              TOTAL IN =     4019362.1195

          OUT:                                     OUT:
          ----                                     ----
              STO-SS =           0.0000                STO-SS =           0.0000     STORAGE         
              STO-SY =    78412270.7805                STO-SY =       19150.0549     STORAGE         
                 WEL =   197296112.9598                   WEL =     1990372.0140     WEL_0           
                 DRN =   728024206.2945                   DRN =     2009839.5078     DRN_0           
                 RCH =           0.0000                   RCH =           0.0000     RCH_0           

           TOTAL OUT =  1003732590.0348             TOTAL OUT =     4019361.5767

            IN - OUT =           1.1485              IN - OUT =           0.5428

 PERCENT DISCREPANCY =           0.00     PERCENT DISCREPANCY =           0.00




         TIME SUMMARY AT END OF TIME STEP    1 IN STRESS PERIOD  267
                          TIME STEP LENGTH =    1.00000    
                        STRESS PERIOD TIME =    1.00000    
                     TOTAL SIMULATION TIME =    267.000    

end timestep


start timestep kper="268" kstp="1" mode="normal"


 OUTPUT CONTROL FOR STRESS PERIOD 268 IS REPEATED USING SETTINGS FROM A PREVIOUS STRESS PERIOD.


 STRESS PERIOD 268 IS TRANSIENT


 REUSING WELS FROM LAST STRESS PERIOD

 REUSING DRNS FROM LAST STRESS PERIOD

 REUSING RCHS FROM LAST STRESS PERIOD


  VOLUME BUDGET FOR ENTIRE MODEL AT END OF TIME STEP    1, STRESS PERIOD 268
  ---------------------------------------------------------------------------------------------------

     CUMULATIVE VOLUME      L**3       RATES FOR THIS TIME STEP      L**3/T          PACKAGE NAME    
     ------------------                 ------------------------                     ----------------

           IN:                                      IN:
           ---                                      ---
              STO-SS =           0.0000                STO-SS =           0.0000     STORAGE         
              STO-SY =   708584758.9896                STO-SY =     2573683.7400     STORAGE         
                 WEL =           0.0000                   WEL =           0.0000     WEL_0           
                 DRN =           0.0000                   DRN =           0.0000     DRN_0           
                 RCH =   298981406.9806                   RCH =     1259891.0469     RCH_0           

            TOTAL IN =  1007566165.9702              TOTAL IN =     3833574.7868

          OUT:                                     OUT:
          ----                                     ----
              STO-SS =           0.0000                STO-SS =           0.0000     STORAGE         
              STO-SY =    78435402.1466                STO-SY =       23131.3661     STORAGE         
                 WEL =   199064707.3498                   WEL =     1768594.3900     WEL_0           
                 DRN =   730066055.3253                   DRN =     2041849.0307     DRN_0           
                 RCH =           0.0000                   RCH =           0.0000     RCH_0           

           TOTAL OUT =  1007566164.8217             TOTAL OUT =     3833574.7868

            IN - OUT =           1.1485              IN - OUT =      -2.6636E-07

 PERCENT DISCREPANCY =           0.00     PERCENT DISCREPANCY =          -0.00




         TIME SUMMARY AT END OF TIME STEP    1 IN STRESS PERIOD  268
                          TIME STEP LENGTH =    1.00000    
                        STRESS PERIOD TIME =    1.00000    
                     TOTAL SIMULATION TIME =    268.000    

end timestep


start timestep kper="269" kstp="1" mode="normal"


 OUTPUT CONTROL FOR STRESS PERIOD 269 IS REPEATED USING SETTINGS FROM A PREVIOUS STRESS PERIOD.


 STRESS PERIOD 269 IS TRANSIENT


 REUSING WELS FROM LAST STRESS PERIOD

 REUSING DRNS FROM LAST STRESS PERIOD

 REUSING RCHS FROM LAST STRESS PERIOD


  VOLUME BUDGET FOR ENTIRE MODEL AT END OF TIME STEP    1, STRESS PERIOD 269
  ---------------------------------------------------------------------------------------------------

     CUMULATIVE VOLUME      L**3       RATES FOR THIS TIME STEP      L**3/T          PACKAGE NAME    
     ------------------                 ------------------------                     ----------------

           IN:                                      IN:
           ---                                      ---
              STO-SS =           0.0000                STO-SS =           0.0000     STORAGE         
              STO-SY =   711242202.1735                STO-SY =     2657443.1839     STORAGE         
                 WEL =           0.0000                   WEL =           0.0000     WEL_0           
                 DRN =           0.0000                   DRN =           0.0000     DRN_0           
                 RCH =   300252076.7553                   RCH =     1270669.7746     RCH_0           

            TOTAL IN =  1011494278.9288              TOTAL IN =     3928112.9586

          OUT:                                     OUT:
          ----                                     ----
              STO-SS =           0.0000                STO-SS =           0.0000     STORAGE         
              STO-SY =    78452982.5793                STO-SY =       17580.4327     STORAGE         
                 WEL =   200948749.4697                   WEL =     1884042.1198     WEL_0           
                 DRN =   732092545.7313                   DRN =     2026490.4061     DRN_0           
                 RCH =           0.0000                   RCH =           0.0000     RCH_0           

           TOTAL OUT =  1011494277.7803             TOTAL OUT =     3928112.9586

            IN - OUT =           1.1485              IN - OUT =       7.1339E-07

 PERCENT DISCREPANCY =           0.00     PERCENT DISCREPANCY =           0.00




         TIME SUMMARY AT END OF TIME STEP    1 IN STRESS PERIOD  269
                          TIME STEP LENGTH =    1.00000    
                        STRESS PERIOD TIME =    1.00000    
                     TOTAL SIMULATION TIME =    269.000    

end timestep


start timestep kper="270" kstp="1" mode="normal"


 OUTPUT CONTROL FOR STRESS PERIOD 270 IS REPEATED USING SETTINGS FROM A PREVIOUS STRESS PERIOD.


 STRESS PERIOD 270 IS TRANSIENT


 REUSING WELS FROM LAST STRESS PERIOD

 REUSING DRNS FROM LAST STRESS PERIOD

 REUSING RCHS FROM LAST STRESS PERIOD


  VOLUME BUDGET FOR ENTIRE MODEL AT END OF TIME STEP    1, STRESS PERIOD 270
  ---------------------------------------------------------------------------------------------------

     CUMULATIVE VOLUME      L**3       RATES FOR THIS TIME STEP      L**3/T          PACKAGE NAME    
     ------------------                 ------------------------                     ----------------

           IN:                                      IN:
           ---                                      ---
              STO-SS =           0.0000                STO-SS =           0.0000     STORAGE         
              STO-SY =   713737270.2054                STO-SY =     2495068.0319     STORAGE         
                 WEL =           0.0000                   WEL =           0.0000     WEL_0           
                 DRN =           0.0000                   DRN =           0.0000     DRN_0           
                 RCH =   301570489.9955                   RCH =     1318413.2402     RCH_0           

            TOTAL IN =  1015307760.2009              TOTAL IN =     3813481.2721

          OUT:                                     OUT:
          ----                                     ----
              STO-SS =           0.0000                STO-SS =           0.0000     STORAGE         
              STO-SY =    78473683.3362                STO-SY =       20700.7570     STORAGE         
                 WEL =   202647954.8681                   WEL =     1699205.3984     WEL_0           
                 DRN =   734186120.8481                   DRN =     2093575.1167     DRN_0           
                 RCH =           0.0000                   RCH =           0.0000     RCH_0           

           TOTAL OUT =  1015307759.0524             TOTAL OUT =     3813481.2721

            IN - OUT =           1.1485              IN - OUT =       5.5041E-07

 PERCENT DISCREPANCY =           0.00     PERCENT DISCREPANCY =           0.00




         TIME SUMMARY AT END OF TIME STEP    1 IN STRESS PERIOD  270
                          TIME STEP LENGTH =    1.00000    
                        STRESS PERIOD TIME =    1.00000    
                     TOTAL SIMULATION TIME =    270.000    

end timestep


start timestep kper="271" kstp="1" mode="normal"


 OUTPUT CONTROL FOR STRESS PERIOD 271 IS REPEATED USING SETTINGS FROM A PREVIOUS STRESS PERIOD.


 STRESS PERIOD 271 IS TRANSIENT


 REUSING WELS FROM LAST STRESS PERIOD

 REUSING DRNS FROM LAST STRESS PERIOD

 REUSING RCHS FROM LAST STRESS PERIOD


  VOLUME BUDGET FOR ENTIRE MODEL AT END OF TIME STEP    1, STRESS PERIOD 271
  ---------------------------------------------------------------------------------------------------

     CUMULATIVE VOLUME      L**3       RATES FOR THIS TIME STEP      L**3/T          PACKAGE NAME    
     ------------------                 ------------------------                     ----------------

           IN:                                      IN:
           ---                                      ---
              STO-SS =           0.0000                STO-SS =           0.0000     STORAGE         
              STO-SY =   716148618.4676                STO-SY =     2411348.2622     STORAGE         
                 WEL =           0.0000                   WEL =           0.0000     WEL_0           
                 DRN =           0.0000                   DRN =           0.0000     DRN_0           
                 RCH =   302903165.5525                   RCH =     1332675.5569     RCH_0           

            TOTAL IN =  1019051784.0201              TOTAL IN =     3744023.8192

          OUT:                                     OUT:
          ----                                     ----
              STO-SS =           0.0000                STO-SS =           0.0000     STORAGE         
              STO-SY =    78504440.1103                STO-SY =       30756.7741     STORAGE         
                 WEL =   204260142.5641                   WEL =     1612187.6960     WEL_0           
                 DRN =   736287200.1971                   DRN =     2101079.3491     DRN_0           
                 RCH =           0.0000                   RCH =           0.0000     RCH_0           

           TOTAL OUT =  1019051782.8715             TOTAL OUT =     3744023.8192

            IN - OUT =           1.1485              IN - OUT =       1.6401E-06

 PERCENT DISCREPANCY =           0.00     PERCENT DISCREPANCY =           0.00




         TIME SUMMARY AT END OF TIME STEP    1 IN STRESS PERIOD  271
                          TIME STEP LENGTH =    1.00000    
                        STRESS PERIOD TIME =    1.00000    
                     TOTAL SIMULATION TIME =    271.000    

end timestep


start timestep kper="272" kstp="1" mode="normal"


 OUTPUT CONTROL FOR STRESS PERIOD 272 IS REPEATED USING SETTINGS FROM A PREVIOUS STRESS PERIOD.


 STRESS PERIOD 272 IS TRANSIENT


 REUSING WELS FROM LAST STRESS PERIOD

 REUSING DRNS FROM LAST STRESS PERIOD

 REUSING RCHS FROM LAST STRESS PERIOD


  VOLUME BUDGET FOR ENTIRE MODEL AT END OF TIME STEP    1, STRESS PERIOD 272
  ---------------------------------------------------------------------------------------------------

     CUMULATIVE VOLUME      L**3       RATES FOR THIS TIME STEP      L**3/T          PACKAGE NAME    
     ------------------                 ------------------------                     ----------------

           IN:                                      IN:
           ---                                      ---
              STO-SS =           0.0000                STO-SS =           0.0000     STORAGE         
              STO-SY =   718450116.4250                STO-SY =     2301497.9574     STORAGE         
                 WEL =           0.0000                   WEL =           0.0000     WEL_0           
                 DRN =           0.0000                   DRN =           0.0000     DRN_0           
                 RCH =   304269133.3088                   RCH =     1365967.7563     RCH_0           

            TOTAL IN =  1022719249.7338              TOTAL IN =     3667465.7137

          OUT:                                     OUT:
          ----                                     ----
              STO-SS =           0.0000                STO-SS =           0.0000     STORAGE         
              STO-SY =    78534732.9906                STO-SY =       30292.8803     STORAGE         
                 WEL =   205737711.2481                   WEL =     1477568.6840     WEL_0           
                 DRN =   738446804.3465                   DRN =     2159604.1494     DRN_0           
                 RCH =           0.0000                   RCH =           0.0000     RCH_0           

           TOTAL OUT =  1022719248.5852             TOTAL OUT =     3667465.7137

            IN - OUT =           1.1485              IN - OUT =       3.5227E-06

 PERCENT DISCREPANCY =           0.00     PERCENT DISCREPANCY =           0.00




         TIME SUMMARY AT END OF TIME STEP    1 IN STRESS PERIOD  272
                          TIME STEP LENGTH =    1.00000    
                        STRESS PERIOD TIME =    1.00000    
                     TOTAL SIMULATION TIME =    272.000    

end timestep


start timestep kper="273" kstp="1" mode="normal"


 OUTPUT CONTROL FOR STRESS PERIOD 273 IS REPEATED USING SETTINGS FROM A PREVIOUS STRESS PERIOD.


 STRESS PERIOD 273 IS TRANSIENT


 REUSING WELS FROM LAST STRESS PERIOD

 REUSING DRNS FROM LAST STRESS PERIOD

 REUSING RCHS FROM LAST STRESS PERIOD


  VOLUME BUDGET FOR ENTIRE MODEL AT END OF TIME STEP    1, STRESS PERIOD 273
  ---------------------------------------------------------------------------------------------------

     CUMULATIVE VOLUME      L**3       RATES FOR THIS TIME STEP      L**3/T          PACKAGE NAME    
     ------------------                 ------------------------                     ----------------

           IN:                                      IN:
           ---                                      ---
              STO-SS =           0.0000                STO-SS =           0.0000     STORAGE         
              STO-SY =   720602469.3706                STO-SY =     2152352.9456     STORAGE         
                 WEL =           0.0000                   WEL =           0.0000     WEL_0           
                 DRN =           0.0000                   DRN =           0.0000     DRN_0           
                 RCH =   305652696.1450                   RCH =     1383562.8362     RCH_0           

            TOTAL IN =  1026255165.5156              TOTAL IN =     3535915.7818

          OUT:                                     OUT:
          ----                                     ----
              STO-SS =           0.0000                STO-SS =           0.0000     STORAGE         
              STO-SY =    78577495.7193                STO-SY =       42762.7287     STORAGE         
                 WEL =   207037065.0743                   WEL =     1299353.8262     WEL_0           
                 DRN =   740640603.5734                   DRN =     2193799.2269     DRN_0           
                 RCH =           0.0000                   RCH =           0.0000     RCH_0           

           TOTAL OUT =  1026255164.3670             TOTAL OUT =     3535915.7818

            IN - OUT =           1.1485              IN - OUT =       8.3633E-07

 PERCENT DISCREPANCY =           0.00     PERCENT DISCREPANCY =           0.00




         TIME SUMMARY AT END OF TIME STEP    1 IN STRESS PERIOD  273
                          TIME STEP LENGTH =    1.00000    
                        STRESS PERIOD TIME =    1.00000    
                     TOTAL SIMULATION TIME =    273.000    

end timestep


start timestep kper="274" kstp="1" mode="normal"


 OUTPUT CONTROL FOR STRESS PERIOD 274 IS REPEATED USING SETTINGS FROM A PREVIOUS STRESS PERIOD.


 STRESS PERIOD 274 IS TRANSIENT


 REUSING WELS FROM LAST STRESS PERIOD

 REUSING DRNS FROM LAST STRESS PERIOD

 REUSING RCHS FROM LAST STRESS PERIOD


  VOLUME BUDGET FOR ENTIRE MODEL AT END OF TIME STEP    1, STRESS PERIOD 274
  ---------------------------------------------------------------------------------------------------

     CUMULATIVE VOLUME      L**3       RATES FOR THIS TIME STEP      L**3/T          PACKAGE NAME    
     ------------------                 ------------------------                     ----------------

           IN:                                      IN:
           ---                                      ---
              STO-SS =           0.0000                STO-SS =           0.0000     STORAGE         
              STO-SY =   722569197.6536                STO-SY =     1966728.2830     STORAGE         
                 WEL =           0.0000                   WEL =           0.0000     WEL_0           
                 DRN =           0.0000                   DRN =           0.0000     DRN_0           
                 RCH =   307192220.0537                   RCH =     1539523.9087     RCH_0           

            TOTAL IN =  1029761417.7072              TOTAL IN =     3506252.1917

          OUT:                                     OUT:
          ----                                     ----
              STO-SS =           0.0000                STO-SS =           0.0000     STORAGE         
              STO-SY =    78655877.3718                STO-SY =       78381.6526     STORAGE         
                 WEL =   208179699.7198                   WEL =     1142634.6455     WEL_0           
                 DRN =   742925839.4670                   DRN =     2285235.8936     DRN_0           
                 RCH =           0.0000                   RCH =           0.0000     RCH_0           

           TOTAL OUT =  1029761416.5587             TOTAL OUT =     3506252.1917

            IN - OUT =           1.1485              IN - OUT =      -1.8780E-06

 PERCENT DISCREPANCY =           0.00     PERCENT DISCREPANCY =          -0.00




         TIME SUMMARY AT END OF TIME STEP    1 IN STRESS PERIOD  274
                          TIME STEP LENGTH =    1.00000    
                        STRESS PERIOD TIME =    1.00000    
                     TOTAL SIMULATION TIME =    274.000    

end timestep


start timestep kper="275" kstp="1" mode="normal"


 OUTPUT CONTROL FOR STRESS PERIOD 275 IS REPEATED USING SETTINGS FROM A PREVIOUS STRESS PERIOD.


 STRESS PERIOD 275 IS TRANSIENT


 REUSING WELS FROM LAST STRESS PERIOD

 REUSING DRNS FROM LAST STRESS PERIOD

 REUSING RCHS FROM LAST STRESS PERIOD


  VOLUME BUDGET FOR ENTIRE MODEL AT END OF TIME STEP    1, STRESS PERIOD 275
  ---------------------------------------------------------------------------------------------------

     CUMULATIVE VOLUME      L**3       RATES FOR THIS TIME STEP      L**3/T          PACKAGE NAME    
     ------------------                 ------------------------                     ----------------

           IN:                                      IN:
           ---                                      ---
              STO-SS =           0.0000                STO-SS =           0.0000     STORAGE         
              STO-SY =   724396398.7724                STO-SY =     1827201.1189     STORAGE         
                 WEL =           0.0000                   WEL =           0.0000     WEL_0           
                 DRN =           0.0000                   DRN =           0.0000     DRN_0           
                 RCH =   308730256.4336                   RCH =     1538036.3799     RCH_0           

            TOTAL IN =  1033126655.2061              TOTAL IN =     3365237.4988

          OUT:                                     OUT:
          ----                                     ----
              STO-SS =           0.0000                STO-SS =           0.0000     STORAGE         
              STO-SY =    78755391.1370                STO-SY =       99513.7651     STORAGE         
                 WEL =   209116212.1161                   WEL =      936512.3963     WEL_0           
                 DRN =   745255050.8044                   DRN =     2329211.3373     DRN_0           
                 RCH =           0.0000                   RCH =           0.0000     RCH_0           

           TOTAL OUT =  1033126654.0575             TOTAL OUT =     3365237.4988

            IN - OUT =           1.1485              IN - OUT =      -5.1642E-07

 PERCENT DISCREPANCY =           0.00     PERCENT DISCREPANCY =          -0.00




         TIME SUMMARY AT END OF TIME STEP    1 IN STRESS PERIOD  275
                          TIME STEP LENGTH =    1.00000    
                        STRESS PERIOD TIME =    1.00000    
                     TOTAL SIMULATION TIME =    275.000    

end timestep


start timestep kper="276" kstp="1" mode="normal"


 OUTPUT CONTROL FOR STRESS PERIOD 276 IS REPEATED USING SETTINGS FROM A PREVIOUS STRESS PERIOD.


 STRESS PERIOD 276 IS TRANSIENT


 REUSING WELS FROM LAST STRESS PERIOD

 REUSING DRNS FROM LAST STRESS PERIOD

 REUSING RCHS FROM LAST STRESS PERIOD


  VOLUME BUDGET FOR ENTIRE MODEL AT END OF TIME STEP    1, STRESS PERIOD 276
  ---------------------------------------------------------------------------------------------------

     CUMULATIVE VOLUME      L**3       RATES FOR THIS TIME STEP      L**3/T          PACKAGE NAME    
     ------------------                 ------------------------                     ----------------

           IN:                                      IN:
           ---                                      ---
              STO-SS =           0.0000                STO-SS =           0.0000     STORAGE         
              STO-SY =   726268623.3826                STO-SY =     1872224.6102     STORAGE         
                 WEL =           0.0000                   WEL =           0.0000     WEL_0           
                 DRN =           0.0000                   DRN =           0.0000     DRN_0           
                 RCH =   310269081.1562                   RCH =     1538824.7226     RCH_0           

            TOTAL IN =  1036537704.5389              TOTAL IN =     3411049.3328

          OUT:                                     OUT:
          ----                                     ----
              STO-SS =           0.0000                STO-SS =           0.0000     STORAGE         
              STO-SY =    78842187.9313                STO-SY =       86796.7943     STORAGE         
                 WEL =   210119256.4573                   WEL =     1003044.3412     WEL_0           
                 DRN =   747576259.0017                   DRN =     2321208.1973     DRN_0           
                 RCH =           0.0000                   RCH =           0.0000     RCH_0           

           TOTAL OUT =  1036537703.3903             TOTAL OUT =     3411049.3328

            IN - OUT =           1.1485              IN - OUT =       4.9872E-07

 PERCENT DISCREPANCY =           0.00     PERCENT DISCREPANCY =           0.00




         TIME SUMMARY AT END OF TIME STEP    1 IN STRESS PERIOD  276
                          TIME STEP LENGTH =    1.00000    
                        STRESS PERIOD TIME =    1.00000    
                     TOTAL SIMULATION TIME =    276.000    

end timestep


start timestep kper="277" kstp="1" mode="normal"


 OUTPUT CONTROL FOR STRESS PERIOD 277 IS REPEATED USING SETTINGS FROM A PREVIOUS STRESS PERIOD.


 STRESS PERIOD 277 IS TRANSIENT


 REUSING WELS FROM LAST STRESS PERIOD

 REUSING DRNS FROM LAST STRESS PERIOD

 REUSING RCHS FROM LAST STRESS PERIOD


  VOLUME BUDGET FOR ENTIRE MODEL AT END OF TIME STEP    1, STRESS PERIOD 277
  ---------------------------------------------------------------------------------------------------

     CUMULATIVE VOLUME      L**3       RATES FOR THIS TIME STEP      L**3/T          PACKAGE NAME    
     ------------------                 ------------------------                     ----------------

           IN:                                      IN:
           ---                                      ---
              STO-SS =           0.0000                STO-SS =           0.0000     STORAGE         
              STO-SY =   728448668.5457                STO-SY =     2180045.1630     STORAGE         
                 WEL =           0.0000                   WEL =           0.0000     WEL_0           
                 DRN =           0.0000                   DRN =           0.0000     DRN_0           
                 RCH =   311777938.8641                   RCH =     1508857.7078     RCH_0           

            TOTAL IN =  1040226607.4097              TOTAL IN =     3688902.8709

          OUT:                                     OUT:
          ----                                     ----
              STO-SS =           0.0000                STO-SS =           0.0000     STORAGE         
              STO-SY =    78885980.2440                STO-SY =       43792.3127     STORAGE         
                 WEL =   211529373.3121                   WEL =     1410116.8548     WEL_0           
                 DRN =   749811252.7051                   DRN =     2234993.7034     DRN_0           
                 RCH =           0.0000                   RCH =           0.0000     RCH_0           

           TOTAL OUT =  1040226606.2612             TOTAL OUT =     3688902.8709

            IN - OUT =           1.1485              IN - OUT =       2.2249E-06

 PERCENT DISCREPANCY =           0.00     PERCENT DISCREPANCY =           0.00




         TIME SUMMARY AT END OF TIME STEP    1 IN STRESS PERIOD  277
                          TIME STEP LENGTH =    1.00000    
                        STRESS PERIOD TIME =    1.00000    
                     TOTAL SIMULATION TIME =    277.000    

end timestep


start timestep kper="278" kstp="1" mode="normal"


 OUTPUT CONTROL FOR STRESS PERIOD 278 IS REPEATED USING SETTINGS FROM A PREVIOUS STRESS PERIOD.


 STRESS PERIOD 278 IS TRANSIENT


 REUSING WELS FROM LAST STRESS PERIOD

 REUSING DRNS FROM LAST STRESS PERIOD

 REUSING RCHS FROM LAST STRESS PERIOD


  VOLUME BUDGET FOR ENTIRE MODEL AT END OF TIME STEP    1, STRESS PERIOD 278
  ---------------------------------------------------------------------------------------------------

     CUMULATIVE VOLUME      L**3       RATES FOR THIS TIME STEP      L**3/T          PACKAGE NAME    
     ------------------                 ------------------------                     ----------------

           IN:                                      IN:
           ---                                      ---
              STO-SS =           0.0000                STO-SS =           0.0000     STORAGE         
              STO-SY =   730519813.7767                STO-SY =     2071145.2310     STORAGE         
                 WEL =           0.0000                   WEL =           0.0000     WEL_0           
                 DRN =           0.0000                   DRN =           0.0000     DRN_0           
                 RCH =   313245527.2743                   RCH =     1467588.4102     RCH_0           

            TOTAL IN =  1043765341.0510              TOTAL IN =     3538733.6412

          OUT:                                     OUT:
          ----                                     ----
              STO-SS =           0.0000                STO-SS =           0.0000     STORAGE         
              STO-SY =    78932124.7598                STO-SY =       46144.5158     STORAGE         
                 WEL =   212770562.1680                   WEL =     1241188.8559     WEL_0           
                 DRN =   752062652.9746                   DRN =     2251400.2695     DRN_0           
                 RCH =           0.0000                   RCH =           0.0000     RCH_0           

           TOTAL OUT =  1043765339.9024             TOTAL OUT =     3538733.6412

            IN - OUT =           1.1485              IN - OUT =      -2.3283E-06

 PERCENT DISCREPANCY =           0.00     PERCENT DISCREPANCY =          -0.00




         TIME SUMMARY AT END OF TIME STEP    1 IN STRESS PERIOD  278
                          TIME STEP LENGTH =    1.00000    
                        STRESS PERIOD TIME =    1.00000    
                     TOTAL SIMULATION TIME =    278.000    

end timestep


start timestep kper="279" kstp="1" mode="normal"


 OUTPUT CONTROL FOR STRESS PERIOD 279 IS REPEATED USING SETTINGS FROM A PREVIOUS STRESS PERIOD.


 STRESS PERIOD 279 IS TRANSIENT


 REUSING WELS FROM LAST STRESS PERIOD

 REUSING DRNS FROM LAST STRESS PERIOD

 REUSING RCHS FROM LAST STRESS PERIOD


  VOLUME BUDGET FOR ENTIRE MODEL AT END OF TIME STEP    1, STRESS PERIOD 279
  ---------------------------------------------------------------------------------------------------

     CUMULATIVE VOLUME      L**3       RATES FOR THIS TIME STEP      L**3/T          PACKAGE NAME    
     ------------------                 ------------------------                     ----------------

           IN:                                      IN:
           ---                                      ---
              STO-SS =           0.0000                STO-SS =           0.0000     STORAGE         
              STO-SY =   732669686.4164                STO-SY =     2149872.6397     STORAGE         
                 WEL =           0.0000                   WEL =           0.0000     WEL_0           
                 DRN =           0.0000                   DRN =           0.0000     DRN_0           
                 RCH =   314726645.0968                   RCH =     1481117.8225     RCH_0           

            TOTAL IN =  1047396331.5132              TOTAL IN =     3630990.4622

          OUT:                                     OUT:
          ----                                     ----
              STO-SS =           0.0000                STO-SS =           0.0000     STORAGE         
              STO-SY =    78978539.3670                STO-SY =       46414.6072     STORAGE         
                 WEL =   214127832.6180                   WEL =     1357270.4500     WEL_0           
                 DRN =   754289958.3796                   DRN =     2227305.4050     DRN_0           
                 RCH =           0.0000                   RCH =           0.0000     RCH_0           

           TOTAL OUT =  1047396330.3646             TOTAL OUT =     3630990.4622

            IN - OUT =           1.1485              IN - OUT =      -1.0771E-06

 PERCENT DISCREPANCY =           0.00     PERCENT DISCREPANCY =          -0.00




         TIME SUMMARY AT END OF TIME STEP    1 IN STRESS PERIOD  279
                          TIME STEP LENGTH =    1.00000    
                        STRESS PERIOD TIME =    1.00000    
                     TOTAL SIMULATION TIME =    279.000    

end timestep


start timestep kper="280" kstp="1" mode="normal"


 OUTPUT CONTROL FOR STRESS PERIOD 280 IS REPEATED USING SETTINGS FROM A PREVIOUS STRESS PERIOD.


 STRESS PERIOD 280 IS TRANSIENT


 REUSING WELS FROM LAST STRESS PERIOD

 REUSING DRNS FROM LAST STRESS PERIOD

 REUSING RCHS FROM LAST STRESS PERIOD


  VOLUME BUDGET FOR ENTIRE MODEL AT END OF TIME STEP    1, STRESS PERIOD 280
  ---------------------------------------------------------------------------------------------------

     CUMULATIVE VOLUME      L**3       RATES FOR THIS TIME STEP      L**3/T          PACKAGE NAME    
     ------------------                 ------------------------                     ----------------

           IN:                                      IN:
           ---                                      ---
              STO-SS =           0.0000                STO-SS =           0.0000     STORAGE         
              STO-SY =   734855359.9132                STO-SY =     2185673.4968     STORAGE         
                 WEL =           0.0000                   WEL =           0.0000     WEL_0           
                 DRN =           0.0000                   DRN =           0.0000     DRN_0           
                 RCH =   316221050.0993                   RCH =     1494405.0025     RCH_0           

            TOTAL IN =  1051076410.0125              TOTAL IN =     3680078.4994

          OUT:                                     OUT:
          ----                                     ----
              STO-SS =           0.0000                STO-SS =           0.0000     STORAGE         
              STO-SY =    79011190.6411                STO-SY =       32651.2741     STORAGE         
                 WEL =   215558270.5742                   WEL =     1430437.9562     WEL_0           
                 DRN =   756506947.6487                   DRN =     2216989.2691     DRN_0           
                 RCH =           0.0000                   RCH =           0.0000     RCH_0           

           TOTAL OUT =  1051076408.8640             TOTAL OUT =     3680078.4994

            IN - OUT =           1.1485              IN - OUT =       3.0492E-06

 PERCENT DISCREPANCY =           0.00     PERCENT DISCREPANCY =           0.00




         TIME SUMMARY AT END OF TIME STEP    1 IN STRESS PERIOD  280
                          TIME STEP LENGTH =    1.00000    
                        STRESS PERIOD TIME =    1.00000    
                     TOTAL SIMULATION TIME =    280.000    

end timestep


start timestep kper="281" kstp="1" mode="normal"


 OUTPUT CONTROL FOR STRESS PERIOD 281 IS REPEATED USING SETTINGS FROM A PREVIOUS STRESS PERIOD.


 STRESS PERIOD 281 IS TRANSIENT


 REUSING WELS FROM LAST STRESS PERIOD

 REUSING DRNS FROM LAST STRESS PERIOD

 REUSING RCHS FROM LAST STRESS PERIOD


  VOLUME BUDGET FOR ENTIRE MODEL AT END OF TIME STEP    1, STRESS PERIOD 281
  ---------------------------------------------------------------------------------------------------

     CUMULATIVE VOLUME      L**3       RATES FOR THIS TIME STEP      L**3/T          PACKAGE NAME    
     ------------------                 ------------------------                     ----------------

           IN:                                      IN:
           ---                                      ---
              STO-SS =           0.0000                STO-SS =           0.0000     STORAGE         
              STO-SY =   737036813.5200                STO-SY =     2181453.6068     STORAGE         
                 WEL =           0.0000                   WEL =           0.0000     WEL_0           
                 DRN =           0.0000                   DRN =           0.0000     DRN_0           
                 RCH =   317671749.4013                   RCH =     1450699.3020     RCH_0           

            TOTAL IN =  1054708562.9213              TOTAL IN =     3632152.9088

          OUT:                                     OUT:
          ----                                     ----
              STO-SS =           0.0000                STO-SS =           0.0000     STORAGE         
              STO-SY =    79049940.8501                STO-SY =       38750.2090     STORAGE         
                 WEL =   216943874.9261                   WEL =     1385604.3519     WEL_0           
                 DRN =   758714745.9966                   DRN =     2207798.3479     DRN_0           
                 RCH =           0.0000                   RCH =           0.0000     RCH_0           

           TOTAL OUT =  1054708561.7728             TOTAL OUT =     3632152.9088

            IN - OUT =           1.1485              IN - OUT =      -3.0473E-06

 PERCENT DISCREPANCY =           0.00     PERCENT DISCREPANCY =          -0.00




         TIME SUMMARY AT END OF TIME STEP    1 IN STRESS PERIOD  281
                          TIME STEP LENGTH =    1.00000    
                        STRESS PERIOD TIME =    1.00000    
                     TOTAL SIMULATION TIME =    281.000    

end timestep


start timestep kper="282" kstp="1" mode="normal"


 OUTPUT CONTROL FOR STRESS PERIOD 282 IS REPEATED USING SETTINGS FROM A PREVIOUS STRESS PERIOD.


 STRESS PERIOD 282 IS TRANSIENT


 REUSING WELS FROM LAST STRESS PERIOD

 REUSING DRNS FROM LAST STRESS PERIOD

 REUSING RCHS FROM LAST STRESS PERIOD


  VOLUME BUDGET FOR ENTIRE MODEL AT END OF TIME STEP    1, STRESS PERIOD 282
  ---------------------------------------------------------------------------------------------------

     CUMULATIVE VOLUME      L**3       RATES FOR THIS TIME STEP      L**3/T          PACKAGE NAME    
     ------------------                 ------------------------                     ----------------

           IN:                                      IN:
           ---                                      ---
              STO-SS =           0.0000                STO-SS =           0.0000     STORAGE         
              STO-SY =   739167462.9047                STO-SY =     2130649.3848     STORAGE         
                 WEL =           0.0000                   WEL =           0.0000     WEL_0           
                 DRN =           0.0000                   DRN =           0.0000     DRN_0           
                 RCH =   319149035.3385                   RCH =     1477285.9372     RCH_0           

            TOTAL IN =  1058316498.2433              TOTAL IN =     3607935.3220

          OUT:                                     OUT:
          ----                                     ----
              STO-SS =           0.0000                STO-SS =           0.0000     STORAGE         
              STO-SY =    79085517.8360                STO-SY =       35576.9859     STORAGE         
                 WEL =   218294442.1281                   WEL =     1350567.2020     WEL_0           
                 DRN =   760936537.1306                   DRN =     2221791.1341     DRN_0           
                 RCH =           0.0000                   RCH =           0.0000     RCH_0           

           TOTAL OUT =  1058316497.0947             TOTAL OUT =     3607935.3220

            IN - OUT =           1.1485              IN - OUT =      -2.7451E-06

 PERCENT DISCREPANCY =           0.00     PERCENT DISCREPANCY =          -0.00




         TIME SUMMARY AT END OF TIME STEP    1 IN STRESS PERIOD  282
                          TIME STEP LENGTH =    1.00000    
                        STRESS PERIOD TIME =    1.00000    
                     TOTAL SIMULATION TIME =    282.000    

end timestep


start timestep kper="283" kstp="1" mode="normal"


 OUTPUT CONTROL FOR STRESS PERIOD 283 IS REPEATED USING SETTINGS FROM A PREVIOUS STRESS PERIOD.


 STRESS PERIOD 283 IS TRANSIENT


 REUSING WELS FROM LAST STRESS PERIOD

 REUSING DRNS FROM LAST STRESS PERIOD

 REUSING RCHS FROM LAST STRESS PERIOD


  VOLUME BUDGET FOR ENTIRE MODEL AT END OF TIME STEP    1, STRESS PERIOD 283
  ---------------------------------------------------------------------------------------------------

     CUMULATIVE VOLUME      L**3       RATES FOR THIS TIME STEP      L**3/T          PACKAGE NAME    
     ------------------                 ------------------------                     ----------------

           IN:                                      IN:
           ---                                      ---
              STO-SS =           0.0000                STO-SS =           0.0000     STORAGE         
              STO-SY =   741185802.2988                STO-SY =     2018339.3941     STORAGE         
                 WEL =           0.0000                   WEL =           0.0000     WEL_0           
                 DRN =           0.0000                   DRN =           0.0000     DRN_0           
                 RCH =   320657084.6135                   RCH =     1508049.2750     RCH_0           

            TOTAL IN =  1061842886.9123              TOTAL IN =     3526388.6691

          OUT:                                     OUT:
          ----                                     ----
              STO-SS =           0.0000                STO-SS =           0.0000     STORAGE         
              STO-SY =    79135134.4288                STO-SY =       49616.5928     STORAGE         
                 WEL =   219506503.7502                   WEL =     1212061.6221     WEL_0           
                 DRN =   763201247.5848                   DRN =     2264710.4542     DRN_0           
                 RCH =           0.0000                   RCH =           0.0000     RCH_0           

           TOTAL OUT =  1061842885.7638             TOTAL OUT =     3526388.6691

            IN - OUT =           1.1485              IN - OUT =       8.7172E-07

 PERCENT DISCREPANCY =           0.00     PERCENT DISCREPANCY =           0.00




         TIME SUMMARY AT END OF TIME STEP    1 IN STRESS PERIOD  283
                          TIME STEP LENGTH =    1.00000    
                        STRESS PERIOD TIME =    1.00000    
                     TOTAL SIMULATION TIME =    283.000    

end timestep


start timestep kper="284" kstp="1" mode="normal"


 OUTPUT CONTROL FOR STRESS PERIOD 284 IS REPEATED USING SETTINGS FROM A PREVIOUS STRESS PERIOD.


 STRESS PERIOD 284 IS TRANSIENT


 REUSING WELS FROM LAST STRESS PERIOD

 REUSING DRNS FROM LAST STRESS PERIOD

 REUSING RCHS FROM LAST STRESS PERIOD


  VOLUME BUDGET FOR ENTIRE MODEL AT END OF TIME STEP    1, STRESS PERIOD 284
  ---------------------------------------------------------------------------------------------------

     CUMULATIVE VOLUME      L**3       RATES FOR THIS TIME STEP      L**3/T          PACKAGE NAME    
     ------------------                 ------------------------                     ----------------

           IN:                                      IN:
           ---                                      ---
              STO-SS =           0.0000                STO-SS =           0.0000     STORAGE         
              STO-SY =   743069515.0687                STO-SY =     1883712.7699     STORAGE         
                 WEL =           0.0000                   WEL =           0.0000     WEL_0           
                 DRN =           0.0000                   DRN =           0.0000     DRN_0           
                 RCH =   322253829.8197                   RCH =     1596745.2062     RCH_0           

            TOTAL IN =  1065323344.8884              TOTAL IN =     3480457.9761

          OUT:                                     OUT:
          ----                                     ----
              STO-SS =           0.0000                STO-SS =           0.0000     STORAGE         
              STO-SY =    79203427.8291                STO-SY =       68293.4003     STORAGE         
                 WEL =   220592399.4918                   WEL =     1085895.7416     WEL_0           
                 DRN =   765527516.4190                   DRN =     2326268.8342     DRN_0           
                 RCH =           0.0000                   RCH =           0.0000     RCH_0           

           TOTAL OUT =  1065323343.7399             TOTAL OUT =     3480457.9761

            IN - OUT =           1.1485              IN - OUT =       1.7467E-06

 PERCENT DISCREPANCY =           0.00     PERCENT DISCREPANCY =           0.00




         TIME SUMMARY AT END OF TIME STEP    1 IN STRESS PERIOD  284
                          TIME STEP LENGTH =    1.00000    
                        STRESS PERIOD TIME =    1.00000    
                     TOTAL SIMULATION TIME =    284.000    

end timestep


start timestep kper="285" kstp="1" mode="normal"


 OUTPUT CONTROL FOR STRESS PERIOD 285 IS REPEATED USING SETTINGS FROM A PREVIOUS STRESS PERIOD.


 STRESS PERIOD 285 IS TRANSIENT


 REUSING WELS FROM LAST STRESS PERIOD

 REUSING DRNS FROM LAST STRESS PERIOD

 REUSING RCHS FROM LAST STRESS PERIOD


  VOLUME BUDGET FOR ENTIRE MODEL AT END OF TIME STEP    1, STRESS PERIOD 285
  ---------------------------------------------------------------------------------------------------

     CUMULATIVE VOLUME      L**3       RATES FOR THIS TIME STEP      L**3/T          PACKAGE NAME    
     ------------------                 ------------------------                     ----------------

           IN:                                      IN:
           ---                                      ---
              STO-SS =           0.0000                STO-SS =           0.0000     STORAGE         
              STO-SY =   744939561.5198                STO-SY =     1870046.4511     STORAGE         
                 WEL =           0.0000                   WEL =           0.0000     WEL_0           
                 DRN =           0.0000                   DRN =           0.0000     DRN_0           
                 RCH =   323815479.9057                   RCH =     1561650.0860     RCH_0           

            TOTAL IN =  1068755041.4255              TOTAL IN =     3431696.5371

          OUT:                                     OUT:
          ----                                     ----
              STO-SS =           0.0000                STO-SS =           0.0000     STORAGE         
              STO-SY =    79278210.7398                STO-SY =       74782.9107     STORAGE         
                 WEL =   221614645.6418                   WEL =     1022246.1500     WEL_0           
                 DRN =   767862183.8954                   DRN =     2334667.4764     DRN_0           
                 RCH =           0.0000                   RCH =           0.0000     RCH_0           

           TOTAL OUT =  1068755040.2770             TOTAL OUT =     3431696.5371

            IN - OUT =           1.1485              IN - OUT =       7.7998E-07

 PERCENT DISCREPANCY =           0.00     PERCENT DISCREPANCY =           0.00




         TIME SUMMARY AT END OF TIME STEP    1 IN STRESS PERIOD  285
                          TIME STEP LENGTH =    1.00000    
                        STRESS PERIOD TIME =    1.00000    
                     TOTAL SIMULATION TIME =    285.000    

end timestep


start timestep kper="286" kstp="1" mode="normal"


 OUTPUT CONTROL FOR STRESS PERIOD 286 IS REPEATED USING SETTINGS FROM A PREVIOUS STRESS PERIOD.


 STRESS PERIOD 286 IS TRANSIENT


 REUSING WELS FROM LAST STRESS PERIOD

 REUSING DRNS FROM LAST STRESS PERIOD

 REUSING RCHS FROM LAST STRESS PERIOD


  VOLUME BUDGET FOR ENTIRE MODEL AT END OF TIME STEP    1, STRESS PERIOD 286
  ---------------------------------------------------------------------------------------------------

     CUMULATIVE VOLUME      L**3       RATES FOR THIS TIME STEP      L**3/T          PACKAGE NAME    
     ------------------                 ------------------------                     ----------------

           IN:                                      IN:
           ---                                      ---
              STO-SS =           0.0000                STO-SS =           0.0000     STORAGE         
              STO-SY =   746978126.9311                STO-SY =     2038565.4112     STORAGE         
                 WEL =           0.0000                   WEL =           0.0000     WEL_0           
                 DRN =           0.0000                   DRN =           0.0000     DRN_0           
                 RCH =   325379063.5936                   RCH =     1563583.6879     RCH_0           

            TOTAL IN =  1072357190.5246              TOTAL IN =     3602149.0991

          OUT:                                     OUT:
          ----                                     ----
              STO-SS =           0.0000                STO-SS =           0.0000     STORAGE         
              STO-SY =    79327698.1255                STO-SY =       49487.3858     STORAGE         
                 WEL =   222875099.9870                   WEL =     1260454.3452     WEL_0           
                 DRN =   770154391.2636                   DRN =     2292207.3682     DRN_0           
                 RCH =           0.0000                   RCH =           0.0000     RCH_0           

           TOTAL OUT =  1072357189.3761             TOTAL OUT =     3602149.0991

            IN - OUT =           1.1486              IN - OUT =       4.1332E-06

 PERCENT DISCREPANCY =           0.00     PERCENT DISCREPANCY =           0.00




         TIME SUMMARY AT END OF TIME STEP    1 IN STRESS PERIOD  286
                          TIME STEP LENGTH =    1.00000    
                        STRESS PERIOD TIME =    1.00000    
                     TOTAL SIMULATION TIME =    286.000    

end timestep


start timestep kper="287" kstp="1" mode="normal"


 OUTPUT CONTROL FOR STRESS PERIOD 287 IS REPEATED USING SETTINGS FROM A PREVIOUS STRESS PERIOD.


 STRESS PERIOD 287 IS TRANSIENT


 REUSING WELS FROM LAST STRESS PERIOD

 REUSING DRNS FROM LAST STRESS PERIOD

 REUSING RCHS FROM LAST STRESS PERIOD


  VOLUME BUDGET FOR ENTIRE MODEL AT END OF TIME STEP    1, STRESS PERIOD 287
  ---------------------------------------------------------------------------------------------------

     CUMULATIVE VOLUME      L**3       RATES FOR THIS TIME STEP      L**3/T          PACKAGE NAME    
     ------------------                 ------------------------                     ----------------

           IN:                                      IN:
           ---                                      ---
              STO-SS =           0.0000                STO-SS =           0.0000     STORAGE         
              STO-SY =   748835622.3370                STO-SY =     1857495.4060     STORAGE         
                 WEL =           0.0000                   WEL =           0.0000     WEL_0           
                 DRN =           0.0000                   DRN =           0.0000     DRN_0           
                 RCH =   327012687.7005                   RCH =     1633624.1069     RCH_0           

            TOTAL IN =  1075848310.0375              TOTAL IN =     3491119.5129

          OUT:                                     OUT:
          ----                                     ----
              STO-SS =           0.0000                STO-SS =           0.0000     STORAGE         
              STO-SY =    79387291.9521                STO-SY =       59593.8266     STORAGE         
                 WEL =   223952526.7075                   WEL =     1077426.7205     WEL_0           
                 DRN =   772508490.2293                   DRN =     2354098.9658     DRN_0           
                 RCH =           0.0000                   RCH =           0.0000     RCH_0           

           TOTAL OUT =  1075848308.8890             TOTAL OUT =     3491119.5129

            IN - OUT =           1.1485              IN - OUT =      -7.6275E-07

 PERCENT DISCREPANCY =           0.00     PERCENT DISCREPANCY =          -0.00




         TIME SUMMARY AT END OF TIME STEP    1 IN STRESS PERIOD  287
                          TIME STEP LENGTH =    1.00000    
                        STRESS PERIOD TIME =    1.00000    
                     TOTAL SIMULATION TIME =    287.000    

end timestep


start timestep kper="288" kstp="1" mode="normal"


 OUTPUT CONTROL FOR STRESS PERIOD 288 IS REPEATED USING SETTINGS FROM A PREVIOUS STRESS PERIOD.


 STRESS PERIOD 288 IS TRANSIENT


 REUSING WELS FROM LAST STRESS PERIOD

 REUSING DRNS FROM LAST STRESS PERIOD

 REUSING RCHS FROM LAST STRESS PERIOD


  VOLUME BUDGET FOR ENTIRE MODEL AT END OF TIME STEP    1, STRESS PERIOD 288
  ---------------------------------------------------------------------------------------------------

     CUMULATIVE VOLUME      L**3       RATES FOR THIS TIME STEP      L**3/T          PACKAGE NAME    
     ------------------                 ------------------------                     ----------------

           IN:                                      IN:
           ---                                      ---
              STO-SS =           0.0000                STO-SS =           0.0000     STORAGE         
              STO-SY =   750561264.4417                STO-SY =     1725642.1046     STORAGE         
                 WEL =           0.0000                   WEL =           0.0000     WEL_0           
                 DRN =           0.0000                   DRN =           0.0000     DRN_0           
                 RCH =   328712801.5354                   RCH =     1700113.8349     RCH_0           

            TOTAL IN =  1079274065.9770              TOTAL IN =     3425755.9395

          OUT:                                     OUT:
          ----                                     ----
              STO-SS =           0.0000                STO-SS =           0.0000     STORAGE         
              STO-SY =    79480509.8092                STO-SY =       93217.8571     STORAGE         
                 WEL =   224875753.1388                   WEL =      923226.4313     WEL_0           
                 DRN =   774917801.8805                   DRN =     2409311.6512     DRN_0           
                 RCH =           0.0000                   RCH =           0.0000     RCH_0           

           TOTAL OUT =  1079274064.8285             TOTAL OUT =     3425755.9395

            IN - OUT =           1.1486              IN - OUT =       4.5882E-06

 PERCENT DISCREPANCY =           0.00     PERCENT DISCREPANCY =           0.00




         TIME SUMMARY AT END OF TIME STEP    1 IN STRESS PERIOD  288
                          TIME STEP LENGTH =    1.00000    
                        STRESS PERIOD TIME =    1.00000    
                     TOTAL SIMULATION TIME =    288.000    

end timestep


start timestep kper="289" kstp="1" mode="normal"


 OUTPUT CONTROL FOR STRESS PERIOD 289 IS REPEATED USING SETTINGS FROM A PREVIOUS STRESS PERIOD.


 STRESS PERIOD 289 IS TRANSIENT


 REUSING WELS FROM LAST STRESS PERIOD

 REUSING DRNS FROM LAST STRESS PERIOD

 REUSING RCHS FROM LAST STRESS PERIOD


  VOLUME BUDGET FOR ENTIRE MODEL AT END OF TIME STEP    1, STRESS PERIOD 289
  ---------------------------------------------------------------------------------------------------

     CUMULATIVE VOLUME      L**3       RATES FOR THIS TIME STEP      L**3/T          PACKAGE NAME    
     ------------------                 ------------------------                     ----------------

           IN:                                      IN:
           ---                                      ---
              STO-SS =           0.0000                STO-SS =           0.0000     STORAGE         
              STO-SY =   752432498.0991                STO-SY =     1871233.6574     STORAGE         
                 WEL =           0.0000                   WEL =           0.0000     WEL_0           
                 DRN =           0.0000                   DRN =           0.0000     DRN_0           
                 RCH =   330292859.2245                   RCH =     1580057.6891     RCH_0           

            TOTAL IN =  1082725357.3236              TOTAL IN =     3451291.3465

          OUT:                                     OUT:
          ----                                     ----
              STO-SS =           0.0000                STO-SS =           0.0000     STORAGE         
              STO-SY =    79538403.6546                STO-SY =       57893.8454     STORAGE         
                 WEL =   225930419.4420                   WEL =     1054666.3032     WEL_0           
                 DRN =   777256533.0785                   DRN =     2338731.1980     DRN_0           
                 RCH =           0.0000                   RCH =           0.0000     RCH_0           

           TOTAL OUT =  1082725356.1750             TOTAL OUT =     3451291.3465

            IN - OUT =           1.1486              IN - OUT =       1.2424E-06

 PERCENT DISCREPANCY =           0.00     PERCENT DISCREPANCY =           0.00




         TIME SUMMARY AT END OF TIME STEP    1 IN STRESS PERIOD  289
                          TIME STEP LENGTH =    1.00000    
                        STRESS PERIOD TIME =    1.00000    
                     TOTAL SIMULATION TIME =    289.000    

end timestep


start timestep kper="290" kstp="1" mode="normal"


 OUTPUT CONTROL FOR STRESS PERIOD 290 IS REPEATED USING SETTINGS FROM A PREVIOUS STRESS PERIOD.


 STRESS PERIOD 290 IS TRANSIENT


 REUSING WELS FROM LAST STRESS PERIOD

 REUSING DRNS FROM LAST STRESS PERIOD

 REUSING RCHS FROM LAST STRESS PERIOD


  VOLUME BUDGET FOR ENTIRE MODEL AT END OF TIME STEP    1, STRESS PERIOD 290
  ---------------------------------------------------------------------------------------------------

     CUMULATIVE VOLUME      L**3       RATES FOR THIS TIME STEP      L**3/T          PACKAGE NAME    
     ------------------                 ------------------------                     ----------------

           IN:                                      IN:
           ---                                      ---
              STO-SS =           0.0000                STO-SS =           0.0000     STORAGE         
              STO-SY =   754291651.8270                STO-SY =     1859153.7279     STORAGE         
                 WEL =           0.0000                   WEL =           0.0000     WEL_0           
                 DRN =           0.0000                   DRN =           0.0000     DRN_0           
                 RCH =   331893986.4422                   RCH =     1601127.2177     RCH_0           

            TOTAL IN =  1086185638.2692              TOTAL IN =     3460280.9456

          OUT:                                     OUT:
          ----                                     ----
              STO-SS =           0.0000                STO-SS =           0.0000     STORAGE         
              STO-SY =    79597781.8261                STO-SY =       59378.1715     STORAGE         
                 WEL =   226997979.8398                   WEL =     1067560.3978     WEL_0           
                 DRN =   779589875.4548                   DRN =     2333342.3763     DRN_0           
                 RCH =           0.0000                   RCH =           0.0000     RCH_0           

           TOTAL OUT =  1086185637.1206             TOTAL OUT =     3460280.9456

            IN - OUT =           1.1486              IN - OUT =       2.6622E-06

 PERCENT DISCREPANCY =           0.00     PERCENT DISCREPANCY =           0.00




         TIME SUMMARY AT END OF TIME STEP    1 IN STRESS PERIOD  290
                          TIME STEP LENGTH =    1.00000    
                        STRESS PERIOD TIME =    1.00000    
                     TOTAL SIMULATION TIME =    290.000    

end timestep


start timestep kper="291" kstp="1" mode="normal"


 OUTPUT CONTROL FOR STRESS PERIOD 291 IS REPEATED USING SETTINGS FROM A PREVIOUS STRESS PERIOD.


 STRESS PERIOD 291 IS TRANSIENT


 REUSING WELS FROM LAST STRESS PERIOD

 REUSING DRNS FROM LAST STRESS PERIOD

 REUSING RCHS FROM LAST STRESS PERIOD


  VOLUME BUDGET FOR ENTIRE MODEL AT END OF TIME STEP    1, STRESS PERIOD 291
  ---------------------------------------------------------------------------------------------------

     CUMULATIVE VOLUME      L**3       RATES FOR THIS TIME STEP      L**3/T          PACKAGE NAME    
     ------------------                 ------------------------                     ----------------

           IN:                                      IN:
           ---                                      ---
              STO-SS =           0.0000                STO-SS =           0.0000     STORAGE         
              STO-SY =   756106724.4992                STO-SY =     1815072.6722     STORAGE         
                 WEL =           0.0000                   WEL =           0.0000     WEL_0           
                 DRN =           0.0000                   DRN =           0.0000     DRN_0           
                 RCH =   333501361.4046                   RCH =     1607374.9624     RCH_0           

            TOTAL IN =  1089608085.9038              TOTAL IN =     3422447.6346

          OUT:                                     OUT:
          ----                                     ----
              STO-SS =           0.0000                STO-SS =           0.0000     STORAGE         
              STO-SY =    79663143.9661                STO-SY =       65362.1400     STORAGE         
                 WEL =   228006809.8399                   WEL =     1008830.0001     WEL_0           
                 DRN =   781938130.9493                   DRN =     2348255.4945     DRN_0           
                 RCH =           0.0000                   RCH =           0.0000     RCH_0           

           TOTAL OUT =  1089608084.7552             TOTAL OUT =     3422447.6346

            IN - OUT =           1.1486              IN - OUT =      -1.6568E-06

 PERCENT DISCREPANCY =           0.00     PERCENT DISCREPANCY =          -0.00




         TIME SUMMARY AT END OF TIME STEP    1 IN STRESS PERIOD  291
                          TIME STEP LENGTH =    1.00000    
                        STRESS PERIOD TIME =    1.00000    
                     TOTAL SIMULATION TIME =    291.000    

end timestep


start timestep kper="292" kstp="1" mode="normal"


 OUTPUT CONTROL FOR STRESS PERIOD 292 IS REPEATED USING SETTINGS FROM A PREVIOUS STRESS PERIOD.


 STRESS PERIOD 292 IS TRANSIENT


 REUSING WELS FROM LAST STRESS PERIOD

 REUSING DRNS FROM LAST STRESS PERIOD

 REUSING RCHS FROM LAST STRESS PERIOD


  VOLUME BUDGET FOR ENTIRE MODEL AT END OF TIME STEP    1, STRESS PERIOD 292
  ---------------------------------------------------------------------------------------------------

     CUMULATIVE VOLUME      L**3       RATES FOR THIS TIME STEP      L**3/T          PACKAGE NAME    
     ------------------                 ------------------------                     ----------------

           IN:                                      IN:
           ---                                      ---
              STO-SS =           0.0000                STO-SS =           0.0000     STORAGE         
              STO-SY =   757864021.5609                STO-SY =     1757297.0617     STORAGE         
                 WEL =           0.0000                   WEL =           0.0000     WEL_0           
                 DRN =           0.0000                   DRN =           0.0000     DRN_0           
                 RCH =   335185097.9589                   RCH =     1683736.5542     RCH_0           

            TOTAL IN =  1093049119.5198              TOTAL IN =     3441033.6160

          OUT:                                     OUT:
          ----                                     ----
              STO-SS =           0.0000                STO-SS =           0.0000     STORAGE         
              STO-SY =    79736977.2315                STO-SY =       73833.2654     STORAGE         
                 WEL =   228993976.1381                   WEL =      987166.2982     WEL_0           
                 DRN =   784318165.0017                   DRN =     2380034.0524     DRN_0           
                 RCH =           0.0000                   RCH =           0.0000     RCH_0           

           TOTAL OUT =  1093049118.3712             TOTAL OUT =     3441033.6160

            IN - OUT =           1.1486              IN - OUT =      -2.2314E-06

 PERCENT DISCREPANCY =           0.00     PERCENT DISCREPANCY =          -0.00




         TIME SUMMARY AT END OF TIME STEP    1 IN STRESS PERIOD  292
                          TIME STEP LENGTH =    1.00000    
                        STRESS PERIOD TIME =    1.00000    
                     TOTAL SIMULATION TIME =    292.000    

end timestep


start timestep kper="293" kstp="1" mode="normal"


 OUTPUT CONTROL FOR STRESS PERIOD 293 IS REPEATED USING SETTINGS FROM A PREVIOUS STRESS PERIOD.


 STRESS PERIOD 293 IS TRANSIENT


 REUSING WELS FROM LAST STRESS PERIOD

 REUSING DRNS FROM LAST STRESS PERIOD

 REUSING RCHS FROM LAST STRESS PERIOD


  VOLUME BUDGET FOR ENTIRE MODEL AT END OF TIME STEP    1, STRESS PERIOD 293
  ---------------------------------------------------------------------------------------------------

     CUMULATIVE VOLUME      L**3       RATES FOR THIS TIME STEP      L**3/T          PACKAGE NAME    
     ------------------                 ------------------------                     ----------------

           IN:                                      IN:
           ---                                      ---
              STO-SS =           0.0000                STO-SS =           0.0000     STORAGE         
              STO-SY =   759696509.5669                STO-SY =     1832488.0060     STORAGE         
                 WEL =           0.0000                   WEL =           0.0000     WEL_0           
                 DRN =           0.0000                   DRN =           0.0000     DRN_0           
                 RCH =   336798746.0640                   RCH =     1613648.1052     RCH_0           

            TOTAL IN =  1096495255.6309              TOTAL IN =     3446136.1112

          OUT:                                     OUT:
          ----                                     ----
              STO-SS =           0.0000                STO-SS =           0.0000     STORAGE         
              STO-SY =    79801727.8137                STO-SY =       64750.5822     STORAGE         
                 WEL =   230018862.1219                   WEL =     1024885.9838     WEL_0           
                 DRN =   786674664.5468                   DRN =     2356499.5451     DRN_0           
                 RCH =           0.0000                   RCH =           0.0000     RCH_0           

           TOTAL OUT =  1096495254.4824             TOTAL OUT =     3446136.1112

            IN - OUT =           1.1486              IN - OUT =       1.3951E-06

 PERCENT DISCREPANCY =           0.00     PERCENT DISCREPANCY =           0.00




         TIME SUMMARY AT END OF TIME STEP    1 IN STRESS PERIOD  293
                          TIME STEP LENGTH =    1.00000    
                        STRESS PERIOD TIME =    1.00000    
                     TOTAL SIMULATION TIME =    293.000    

end timestep


start timestep kper="294" kstp="1" mode="normal"


 OUTPUT CONTROL FOR STRESS PERIOD 294 IS REPEATED USING SETTINGS FROM A PREVIOUS STRESS PERIOD.


 STRESS PERIOD 294 IS TRANSIENT


 REUSING WELS FROM LAST STRESS PERIOD

 REUSING DRNS FROM LAST STRESS PERIOD

 REUSING RCHS FROM LAST STRESS PERIOD


  VOLUME BUDGET FOR ENTIRE MODEL AT END OF TIME STEP    1, STRESS PERIOD 294
  ---------------------------------------------------------------------------------------------------

     CUMULATIVE VOLUME      L**3       RATES FOR THIS TIME STEP      L**3/T          PACKAGE NAME    
     ------------------                 ------------------------                     ----------------

           IN:                                      IN:
           ---                                      ---
              STO-SS =           0.0000                STO-SS =           0.0000     STORAGE         
              STO-SY =   761564364.9703                STO-SY =     1867855.4034     STORAGE         
                 WEL =           0.0000                   WEL =           0.0000     WEL_0           
                 DRN =           0.0000                   DRN =           0.0000     DRN_0           
                 RCH =   338415377.1339                   RCH =     1616631.0698     RCH_0           

            TOTAL IN =  1099979742.1041              TOTAL IN =     3484486.4732

          OUT:                                     OUT:
          ----                                     ----
              STO-SS =           0.0000                STO-SS =           0.0000     STORAGE         
              STO-SY =    79862268.9552                STO-SY =       60541.1415     STORAGE         
                 WEL =   231098463.1273                   WEL =     1079601.0054     WEL_0           
                 DRN =   789019008.8732                   DRN =     2344344.3264     DRN_0           
                 RCH =           0.0000                   RCH =           0.0000     RCH_0           

           TOTAL OUT =  1099979740.9556             TOTAL OUT =     3484486.4732

            IN - OUT =           1.1486              IN - OUT =      -1.5311E-06

 PERCENT DISCREPANCY =           0.00     PERCENT DISCREPANCY =          -0.00




         TIME SUMMARY AT END OF TIME STEP    1 IN STRESS PERIOD  294
                          TIME STEP LENGTH =    1.00000    
                        STRESS PERIOD TIME =    1.00000    
                     TOTAL SIMULATION TIME =    294.000    

end timestep


start timestep kper="295" kstp="1" mode="normal"


 OUTPUT CONTROL FOR STRESS PERIOD 295 IS REPEATED USING SETTINGS FROM A PREVIOUS STRESS PERIOD.


 STRESS PERIOD 295 IS TRANSIENT


 REUSING WELS FROM LAST STRESS PERIOD

 REUSING DRNS FROM LAST STRESS PERIOD

 REUSING RCHS FROM LAST STRESS PERIOD


  VOLUME BUDGET FOR ENTIRE MODEL AT END OF TIME STEP    1, STRESS PERIOD 295
  ---------------------------------------------------------------------------------------------------

     CUMULATIVE VOLUME      L**3       RATES FOR THIS TIME STEP      L**3/T          PACKAGE NAME    
     ------------------                 ------------------------                     ----------------

           IN:                                      IN:
           ---                                      ---
              STO-SS =           0.0000                STO-SS =           0.0000     STORAGE         
              STO-SY =   763426536.2895                STO-SY =     1862171.3192     STORAGE         
                 WEL =           0.0000                   WEL =           0.0000     WEL_0           
                 DRN =           0.0000                   DRN =           0.0000     DRN_0           
                 RCH =   340018209.7269                   RCH =     1602832.5930     RCH_0           

            TOTAL IN =  1103444746.0164              TOTAL IN =     3465003.9123

          OUT:                                     OUT:
          ----                                     ----
              STO-SS =           0.0000                STO-SS =           0.0000     STORAGE         
              STO-SY =    79914656.4439                STO-SY =       52387.4887     STORAGE         
                 WEL =   232182742.5686                   WEL =     1084279.4413     WEL_0           
                 DRN =   791347345.8554                   DRN =     2328336.9822     DRN_0           
                 RCH =           0.0000                   RCH =           0.0000     RCH_0           

           TOTAL OUT =  1103444744.8678             TOTAL OUT =     3465003.9123

            IN - OUT =           1.1486              IN - OUT =       1.2321E-06

 PERCENT DISCREPANCY =           0.00     PERCENT DISCREPANCY =           0.00




         TIME SUMMARY AT END OF TIME STEP    1 IN STRESS PERIOD  295
                          TIME STEP LENGTH =    1.00000    
                        STRESS PERIOD TIME =    1.00000    
                     TOTAL SIMULATION TIME =    295.000    

end timestep


start timestep kper="296" kstp="1" mode="normal"


 OUTPUT CONTROL FOR STRESS PERIOD 296 IS REPEATED USING SETTINGS FROM A PREVIOUS STRESS PERIOD.


 STRESS PERIOD 296 IS TRANSIENT


 REUSING WELS FROM LAST STRESS PERIOD

 REUSING DRNS FROM LAST STRESS PERIOD

 REUSING RCHS FROM LAST STRESS PERIOD


  VOLUME BUDGET FOR ENTIRE MODEL AT END OF TIME STEP    1, STRESS PERIOD 296
  ---------------------------------------------------------------------------------------------------

     CUMULATIVE VOLUME      L**3       RATES FOR THIS TIME STEP      L**3/T          PACKAGE NAME    
     ------------------                 ------------------------                     ----------------

           IN:                                      IN:
           ---                                      ---
              STO-SS =           0.0000                STO-SS =           0.0000     STORAGE         
              STO-SY =   765228425.6455                STO-SY =     1801889.3560     STORAGE         
                 WEL =           0.0000                   WEL =           0.0000     WEL_0           
                 DRN =           0.0000                   DRN =           0.0000     DRN_0           
                 RCH =   341672518.5287                   RCH =     1654308.8018     RCH_0           

            TOTAL IN =  1106900944.1743              TOTAL IN =     3456198.1579

          OUT:                                     OUT:
          ----                                     ----
              STO-SS =           0.0000                STO-SS =           0.0000     STORAGE         
              STO-SY =    79971509.0594                STO-SY =       56852.6155     STORAGE         
                 WEL =   233228307.1532                   WEL =     1045564.5847     WEL_0           
                 DRN =   793701126.8131                   DRN =     2353780.9577     DRN_0           
                 RCH =           0.0000                   RCH =           0.0000     RCH_0           

           TOTAL OUT =  1106900943.0257             TOTAL OUT =     3456198.1579

            IN - OUT =           1.1486              IN - OUT =       1.7085E-06

 PERCENT DISCREPANCY =           0.00     PERCENT DISCREPANCY =           0.00




         TIME SUMMARY AT END OF TIME STEP    1 IN STRESS PERIOD  296
                          TIME STEP LENGTH =    1.00000    
                        STRESS PERIOD TIME =    1.00000    
                     TOTAL SIMULATION TIME =    296.000    

end timestep


start timestep kper="297" kstp="1" mode="normal"


 OUTPUT CONTROL FOR STRESS PERIOD 297 IS REPEATED USING SETTINGS FROM A PREVIOUS STRESS PERIOD.


 STRESS PERIOD 297 IS TRANSIENT


 REUSING WELS FROM LAST STRESS PERIOD

 REUSING DRNS FROM LAST STRESS PERIOD

 REUSING RCHS FROM LAST STRESS PERIOD


  VOLUME BUDGET FOR ENTIRE MODEL AT END OF TIME STEP    1, STRESS PERIOD 297
  ---------------------------------------------------------------------------------------------------

     CUMULATIVE VOLUME      L**3       RATES FOR THIS TIME STEP      L**3/T          PACKAGE NAME    
     ------------------                 ------------------------                     ----------------

           IN:                                      IN:
           ---                                      ---
              STO-SS =           0.0000                STO-SS =           0.0000     STORAGE         
              STO-SY =   766966398.5253                STO-SY =     1737972.8798     STORAGE         
                 WEL =           0.0000                   WEL =           0.0000     WEL_0           
                 DRN =           0.0000                   DRN =           0.0000     DRN_0           
                 RCH =   343315120.6472                   RCH =     1642602.1185     RCH_0           

            TOTAL IN =  1110281519.1725              TOTAL IN =     3380574.9982

          OUT:                                     OUT:
          ----                                     ----
              STO-SS =           0.0000                STO-SS =           0.0000     STORAGE         
              STO-SY =    80041514.6011                STO-SY =       70005.5417     STORAGE         
                 WEL =   234162533.7454                   WEL =      934226.5921     WEL_0           
                 DRN =   796077469.6775                   DRN =     2376342.8644     DRN_0           
                 RCH =           0.0000                   RCH =           0.0000     RCH_0           

           TOTAL OUT =  1110281518.0239             TOTAL OUT =     3380574.9982

            IN - OUT =           1.1486              IN - OUT =       6.1700E-07

 PERCENT DISCREPANCY =           0.00     PERCENT DISCREPANCY =           0.00




         TIME SUMMARY AT END OF TIME STEP    1 IN STRESS PERIOD  297
                          TIME STEP LENGTH =    1.00000    
                        STRESS PERIOD TIME =    1.00000    
                     TOTAL SIMULATION TIME =    297.000    

end timestep


start timestep kper="298" kstp="1" mode="normal"


 OUTPUT CONTROL FOR STRESS PERIOD 298 IS REPEATED USING SETTINGS FROM A PREVIOUS STRESS PERIOD.


 STRESS PERIOD 298 IS TRANSIENT


 REUSING WELS FROM LAST STRESS PERIOD

 REUSING DRNS FROM LAST STRESS PERIOD

 REUSING RCHS FROM LAST STRESS PERIOD


  VOLUME BUDGET FOR ENTIRE MODEL AT END OF TIME STEP    1, STRESS PERIOD 298
  ---------------------------------------------------------------------------------------------------

     CUMULATIVE VOLUME      L**3       RATES FOR THIS TIME STEP      L**3/T          PACKAGE NAME    
     ------------------                 ------------------------                     ----------------

           IN:                                      IN:
           ---                                      ---
              STO-SS =           0.0000                STO-SS =           0.0000     STORAGE         
              STO-SY =   769019743.2103                STO-SY =     2053344.6850     STORAGE         
                 WEL =           0.0000                   WEL =           0.0000     WEL_0           
                 DRN =           0.0000                   DRN =           0.0000     DRN_0           
                 RCH =   344916186.8189                   RCH =     1601066.1718     RCH_0           

            TOTAL IN =  1113935930.0293              TOTAL IN =     3654410.8568

          OUT:                                     OUT:
          ----                                     ----
              STO-SS =           0.0000                STO-SS =           0.0000     STORAGE         
              STO-SY =    80075741.9824                STO-SY =       34227.3813     STORAGE         
                 WEL =   235477207.3393                   WEL =     1314673.5939     WEL_0           
                 DRN =   798382979.5591                   DRN =     2305509.8816     DRN_0           
                 RCH =           0.0000                   RCH =           0.0000     RCH_0           

           TOTAL OUT =  1113935928.8807             TOTAL OUT =     3654410.8568

            IN - OUT =           1.1486              IN - OUT =       6.6450E-07

 PERCENT DISCREPANCY =           0.00     PERCENT DISCREPANCY =           0.00




         TIME SUMMARY AT END OF TIME STEP    1 IN STRESS PERIOD  298
                          TIME STEP LENGTH =    1.00000    
                        STRESS PERIOD TIME =    1.00000    
                     TOTAL SIMULATION TIME =    298.000    

end timestep


start timestep kper="299" kstp="1" mode="normal"


 OUTPUT CONTROL FOR STRESS PERIOD 299 IS REPEATED USING SETTINGS FROM A PREVIOUS STRESS PERIOD.


 STRESS PERIOD 299 IS TRANSIENT


 REUSING WELS FROM LAST STRESS PERIOD

 REUSING DRNS FROM LAST STRESS PERIOD

 REUSING RCHS FROM LAST STRESS PERIOD


  VOLUME BUDGET FOR ENTIRE MODEL AT END OF TIME STEP    1, STRESS PERIOD 299
  ---------------------------------------------------------------------------------------------------

     CUMULATIVE VOLUME      L**3       RATES FOR THIS TIME STEP      L**3/T          PACKAGE NAME    
     ------------------                 ------------------------                     ----------------

           IN:                                      IN:
           ---                                      ---
              STO-SS =           0.0000                STO-SS =           0.0000     STORAGE         
              STO-SY =   770974825.3974                STO-SY =     1955082.1871     STORAGE         
                 WEL =           0.0000                   WEL =           0.0000     WEL_0           
                 DRN =           0.0000                   DRN =           0.0000     DRN_0           
                 RCH =   346495082.5046                   RCH =     1578895.6857     RCH_0           

            TOTAL IN =  1117469907.9020              TOTAL IN =     3533977.8728

          OUT:                                     OUT:
          ----                                     ----
              STO-SS =           0.0000                STO-SS =           0.0000     STORAGE         
              STO-SY =    80120563.5100                STO-SY =       44821.5276     STORAGE         
                 WEL =   236677405.5700                   WEL =     1200198.2307     WEL_0           
                 DRN =   800671937.6735                   DRN =     2288958.1144     DRN_0           
                 RCH =           0.0000                   RCH =           0.0000     RCH_0           

           TOTAL OUT =  1117469906.7535             TOTAL OUT =     3533977.8728

            IN - OUT =           1.1486              IN - OUT =       1.4310E-06

 PERCENT DISCREPANCY =           0.00     PERCENT DISCREPANCY =           0.00




         TIME SUMMARY AT END OF TIME STEP    1 IN STRESS PERIOD  299
                          TIME STEP LENGTH =    1.00000    
                        STRESS PERIOD TIME =    1.00000    
                     TOTAL SIMULATION TIME =    299.000    

end timestep


start timestep kper="300" kstp="1" mode="normal"


 OUTPUT CONTROL FOR STRESS PERIOD 300 IS REPEATED USING SETTINGS FROM A PREVIOUS STRESS PERIOD.


 STRESS PERIOD 300 IS TRANSIENT


 REUSING WELS FROM LAST STRESS PERIOD

 REUSING DRNS FROM LAST STRESS PERIOD

 REUSING RCHS FROM LAST STRESS PERIOD


  VOLUME BUDGET FOR ENTIRE MODEL AT END OF TIME STEP    1, STRESS PERIOD 300
  ---------------------------------------------------------------------------------------------------

     CUMULATIVE VOLUME      L**3       RATES FOR THIS TIME STEP      L**3/T          PACKAGE NAME    
     ------------------                 ------------------------                     ----------------

           IN:                                      IN:
           ---                                      ---
              STO-SS =           0.0000                STO-SS =           0.0000     STORAGE         
              STO-SY =   772927927.0836                STO-SY =     1953101.6862     STORAGE         
                 WEL =           0.0000                   WEL =           0.0000     WEL_0           
                 DRN =           0.0000                   DRN =           0.0000     DRN_0           
                 RCH =   348052965.4514                   RCH =     1557882.9468     RCH_0           

            TOTAL IN =  1120980892.5349              TOTAL IN =     3510984.6329

          OUT:                                     OUT:
          ----                                     ----
              STO-SS =           0.0000                STO-SS =           0.0000     STORAGE         
              STO-SY =    80154962.2483                STO-SY =       34398.7383     STORAGE         
                 WEL =   237888628.6327                   WEL =     1211223.0627     WEL_0           
                 DRN =   802937300.5054                   DRN =     2265362.8319     DRN_0           
                 RCH =           0.0000                   RCH =           0.0000     RCH_0           

           TOTAL OUT =  1120980891.3864             TOTAL OUT =     3510984.6329

            IN - OUT =           1.1486              IN - OUT =       1.5665E-06

 PERCENT DISCREPANCY =           0.00     PERCENT DISCREPANCY =           0.00




         TIME SUMMARY AT END OF TIME STEP    1 IN STRESS PERIOD  300
                          TIME STEP LENGTH =    1.00000    
                        STRESS PERIOD TIME =    1.00000    
                     TOTAL SIMULATION TIME =    300.000    

end timestep


start timestep kper="301" kstp="1" mode="normal"


 OUTPUT CONTROL FOR STRESS PERIOD 301 IS REPEATED USING SETTINGS FROM A PREVIOUS STRESS PERIOD.


 STRESS PERIOD 301 IS TRANSIENT


 REUSING WELS FROM LAST STRESS PERIOD

 REUSING DRNS FROM LAST STRESS PERIOD

 REUSING RCHS FROM LAST STRESS PERIOD


  VOLUME BUDGET FOR ENTIRE MODEL AT END OF TIME STEP    1, STRESS PERIOD 301
  ---------------------------------------------------------------------------------------------------

     CUMULATIVE VOLUME      L**3       RATES FOR THIS TIME STEP      L**3/T          PACKAGE NAME    
     ------------------                 ------------------------                     ----------------

           IN:                                      IN:
           ---                                      ---
              STO-SS =           0.0000                STO-SS =           0.0000     STORAGE         
              STO-SY =   774891078.9498                STO-SY =     1963151.8662     STORAGE         
                 WEL =           0.0000                   WEL =           0.0000     WEL_0           
                 DRN =           0.0000                   DRN =           0.0000     DRN_0           
                 RCH =   349622979.5268                   RCH =     1570014.0754     RCH_0           

            TOTAL IN =  1124514058.4766              TOTAL IN =     3533165.9416

          OUT:                                     OUT:
          ----                                     ----
              STO-SS =           0.0000                STO-SS =           0.0000     STORAGE         
              STO-SY =    80196288.5594                STO-SY =       41326.3111     STORAGE         
                 WEL =   239098280.0902                   WEL =     1209651.4575     WEL_0           
                 DRN =   805219488.6784                   DRN =     2282188.1730     DRN_0           
                 RCH =           0.0000                   RCH =           0.0000     RCH_0           

           TOTAL OUT =  1124514057.3280             TOTAL OUT =     3533165.9416

            IN - OUT =           1.1486              IN - OUT =       2.1905E-06

 PERCENT DISCREPANCY =           0.00     PERCENT DISCREPANCY =           0.00




         TIME SUMMARY AT END OF TIME STEP    1 IN STRESS PERIOD  301
                          TIME STEP LENGTH =    1.00000    
                        STRESS PERIOD TIME =    1.00000    
                     TOTAL SIMULATION TIME =    301.000    

end timestep


start timestep kper="302" kstp="1" mode="normal"


 OUTPUT CONTROL FOR STRESS PERIOD 302 IS REPEATED USING SETTINGS FROM A PREVIOUS STRESS PERIOD.


 STRESS PERIOD 302 IS TRANSIENT


 REUSING WELS FROM LAST STRESS PERIOD

 REUSING DRNS FROM LAST STRESS PERIOD

 REUSING RCHS FROM LAST STRESS PERIOD


  VOLUME BUDGET FOR ENTIRE MODEL AT END OF TIME STEP    1, STRESS PERIOD 302
  ---------------------------------------------------------------------------------------------------

     CUMULATIVE VOLUME      L**3       RATES FOR THIS TIME STEP      L**3/T          PACKAGE NAME    
     ------------------                 ------------------------                     ----------------

           IN:                                      IN:
           ---                                      ---
              STO-SS =           0.0000                STO-SS =           0.0000     STORAGE         
              STO-SY =   776814777.2499                STO-SY =     1923698.3002     STORAGE         
                 WEL =           0.0000                   WEL =           0.0000     WEL_0           
                 DRN =           0.0000                   DRN =           0.0000     DRN_0           
                 RCH =   351200861.9860                   RCH =     1577882.4593     RCH_0           

            TOTAL IN =  1128015639.2360              TOTAL IN =     3501580.7594

          OUT:                                     OUT:
          ----                                     ----
              STO-SS =           0.0000                STO-SS =           0.0000     STORAGE         
              STO-SY =    80231752.2981                STO-SY =       35463.7387     STORAGE         
                 WEL =   240292590.5951                   WEL =     1194310.5049     WEL_0           
                 DRN =   807491295.1943                   DRN =     2271806.5159     DRN_0           
                 RCH =           0.0000                   RCH =           0.0000     RCH_0           

           TOTAL OUT =  1128015638.0874             TOTAL OUT =     3501580.7594

            IN - OUT =           1.1486              IN - OUT =      -9.1270E-08

 PERCENT DISCREPANCY =           0.00     PERCENT DISCREPANCY =          -0.00




         TIME SUMMARY AT END OF TIME STEP    1 IN STRESS PERIOD  302
                          TIME STEP LENGTH =    1.00000    
                        STRESS PERIOD TIME =    1.00000    
                     TOTAL SIMULATION TIME =    302.000    

end timestep


start timestep kper="303" kstp="1" mode="normal"


 OUTPUT CONTROL FOR STRESS PERIOD 303 IS REPEATED USING SETTINGS FROM A PREVIOUS STRESS PERIOD.


 STRESS PERIOD 303 IS TRANSIENT


 REUSING WELS FROM LAST STRESS PERIOD

 REUSING DRNS FROM LAST STRESS PERIOD

 REUSING RCHS FROM LAST STRESS PERIOD


  VOLUME BUDGET FOR ENTIRE MODEL AT END OF TIME STEP    1, STRESS PERIOD 303
  ---------------------------------------------------------------------------------------------------

     CUMULATIVE VOLUME      L**3       RATES FOR THIS TIME STEP      L**3/T          PACKAGE NAME    
     ------------------                 ------------------------                     ----------------

           IN:                                      IN:
           ---                                      ---
              STO-SS =           0.0000                STO-SS =           0.0000     STORAGE         
              STO-SY =   778005356.1174                STO-SY =     1190578.8674     STORAGE         
                 WEL =           0.0000                   WEL =           0.0000     WEL_0           
                 DRN =           0.0000                   DRN =           0.0000     DRN_0           
                 RCH =   352880940.1337                   RCH =     1680078.1477     RCH_0           

            TOTAL IN =  1130886296.2511              TOTAL IN =     2870657.0151

          OUT:                                     OUT:
          ----                                     ----
              STO-SS =           0.0000                STO-SS =           0.0000     STORAGE         
              STO-SY =    80531419.2952                STO-SY =      299666.9971     STORAGE         
                 WEL =   240316406.1749                   WEL =       23815.5799     WEL_0           
                 DRN =   810038469.6324                   DRN =     2547174.4381     DRN_0           
                 RCH =           0.0000                   RCH =           0.0000     RCH_0           

           TOTAL OUT =  1130886295.1025             TOTAL OUT =     2870657.0151

            IN - OUT =           1.1486              IN - OUT =       3.4501E-06

 PERCENT DISCREPANCY =           0.00     PERCENT DISCREPANCY =           0.00




         TIME SUMMARY AT END OF TIME STEP    1 IN STRESS PERIOD  303
                          TIME STEP LENGTH =    1.00000    
                        STRESS PERIOD TIME =    1.00000    
                     TOTAL SIMULATION TIME =    303.000    

end timestep


start timestep kper="304" kstp="1" mode="normal"


 OUTPUT CONTROL FOR STRESS PERIOD 304 IS REPEATED USING SETTINGS FROM A PREVIOUS STRESS PERIOD.


 STRESS PERIOD 304 IS TRANSIENT


 REUSING WELS FROM LAST STRESS PERIOD

 REUSING DRNS FROM LAST STRESS PERIOD

 REUSING RCHS FROM LAST STRESS PERIOD


  VOLUME BUDGET FOR ENTIRE MODEL AT END OF TIME STEP    1, STRESS PERIOD 304
  ---------------------------------------------------------------------------------------------------

     CUMULATIVE VOLUME      L**3       RATES FOR THIS TIME STEP      L**3/T          PACKAGE NAME    
     ------------------                 ------------------------                     ----------------

           IN:                                      IN:
           ---                                      ---
              STO-SS =           0.0000                STO-SS =           0.0000     STORAGE         
              STO-SY =   779257721.7708                STO-SY =     1252365.6534     STORAGE         
                 WEL =           0.0000                   WEL =           0.0000     WEL_0           
                 DRN =           0.0000                   DRN =           0.0000     DRN_0           
                 RCH =   354364046.3024                   RCH =     1483106.1687     RCH_0           

            TOTAL IN =  1133621768.0732              TOTAL IN =     2735471.8221

          OUT:                                     OUT:
          ----                                     ----
              STO-SS =           0.0000                STO-SS =           0.0000     STORAGE         
              STO-SY =    80755762.0337                STO-SY =      224342.7385     STORAGE         
                 WEL =   240339989.0542                   WEL =       23582.8792     WEL_0           
                 DRN =   812526015.8367                   DRN =     2487546.2044     DRN_0           
                 RCH =           0.0000                   RCH =           0.0000     RCH_0           

           TOTAL OUT =  1133621766.9246             TOTAL OUT =     2735471.8221

            IN - OUT =           1.1486              IN - OUT =       2.3362E-06

 PERCENT DISCREPANCY =           0.00     PERCENT DISCREPANCY =           0.00




         TIME SUMMARY AT END OF TIME STEP    1 IN STRESS PERIOD  304
                          TIME STEP LENGTH =    1.00000    
                        STRESS PERIOD TIME =    1.00000    
                     TOTAL SIMULATION TIME =    304.000    

end timestep


start timestep kper="305" kstp="1" mode="normal"


 OUTPUT CONTROL FOR STRESS PERIOD 305 IS REPEATED USING SETTINGS FROM A PREVIOUS STRESS PERIOD.


 STRESS PERIOD 305 IS TRANSIENT


 REUSING WELS FROM LAST STRESS PERIOD

 REUSING DRNS FROM LAST STRESS PERIOD

 REUSING RCHS FROM LAST STRESS PERIOD


  VOLUME BUDGET FOR ENTIRE MODEL AT END OF TIME STEP    1, STRESS PERIOD 305
  ---------------------------------------------------------------------------------------------------

     CUMULATIVE VOLUME      L**3       RATES FOR THIS TIME STEP      L**3/T          PACKAGE NAME    
     ------------------                 ------------------------                     ----------------

           IN:                                      IN:
           ---                                      ---
              STO-SS =           0.0000                STO-SS =           0.0000     STORAGE         
              STO-SY =   780921301.0419                STO-SY =     1663579.2712     STORAGE         
                 WEL =           0.0000                   WEL =           0.0000     WEL_0           
                 DRN =           0.0000                   DRN =           0.0000     DRN_0           
                 RCH =   355663793.2044                   RCH =     1299746.9020     RCH_0           

            TOTAL IN =  1136585094.2463              TOTAL IN =     2963326.1731

          OUT:                                     OUT:
          ----                                     ----
              STO-SS =           0.0000                STO-SS =           0.0000     STORAGE         
              STO-SY =    80822170.1128                STO-SY =       66408.0791     STORAGE         
                 WEL =   240865853.0081                   WEL =      525863.9539     WEL_0           
                 DRN =   814897069.9769                   DRN =     2371054.1402     DRN_0           
                 RCH =           0.0000                   RCH =           0.0000     RCH_0           

           TOTAL OUT =  1136585093.0978             TOTAL OUT =     2963326.1731

            IN - OUT =           1.1486              IN - OUT =       4.0606E-07

 PERCENT DISCREPANCY =           0.00     PERCENT DISCREPANCY =           0.00




         TIME SUMMARY AT END OF TIME STEP    1 IN STRESS PERIOD  305
                          TIME STEP LENGTH =    1.00000    
                        STRESS PERIOD TIME =    1.00000    
                     TOTAL SIMULATION TIME =    305.000    

end timestep


start timestep kper="306" kstp="1" mode="normal"


 OUTPUT CONTROL FOR STRESS PERIOD 306 IS REPEATED USING SETTINGS FROM A PREVIOUS STRESS PERIOD.


 STRESS PERIOD 306 IS TRANSIENT


 REUSING WELS FROM LAST STRESS PERIOD

 REUSING DRNS FROM LAST STRESS PERIOD

 REUSING RCHS FROM LAST STRESS PERIOD


  VOLUME BUDGET FOR ENTIRE MODEL AT END OF TIME STEP    1, STRESS PERIOD 306
  ---------------------------------------------------------------------------------------------------

     CUMULATIVE VOLUME      L**3       RATES FOR THIS TIME STEP      L**3/T          PACKAGE NAME    
     ------------------                 ------------------------                     ----------------

           IN:                                      IN:
           ---                                      ---
              STO-SS =           0.0000                STO-SS =           0.0000     STORAGE         
              STO-SY =   782302091.7221                STO-SY =     1380790.6802     STORAGE         
                 WEL =           0.0000                   WEL =           0.0000     WEL_0           
                 DRN =           0.0000                   DRN =           0.0000     DRN_0           
                 RCH =   356945977.4710                   RCH =     1282184.2666     RCH_0           

            TOTAL IN =  1139248069.1931              TOTAL IN =     2662974.9468

          OUT:                                     OUT:
          ----                                     ----
              STO-SS =           0.0000                STO-SS =           0.0000     STORAGE         
              STO-SY =    80959482.2889                STO-SY =      137312.1761     STORAGE         
                 WEL =   240983804.7847                   WEL =      117951.7767     WEL_0           
                 DRN =   817304780.9709                   DRN =     2407710.9940     DRN_0           
                 RCH =           0.0000                   RCH =           0.0000     RCH_0           

           TOTAL OUT =  1139248068.0446             TOTAL OUT =     2662974.9468

            IN - OUT =           1.1486              IN - OUT =       2.8224E-06

 PERCENT DISCREPANCY =           0.00     PERCENT DISCREPANCY =           0.00




         TIME SUMMARY AT END OF TIME STEP    1 IN STRESS PERIOD  306
                          TIME STEP LENGTH =    1.00000    
                        STRESS PERIOD TIME =    1.00000    
                     TOTAL SIMULATION TIME =    306.000    

end timestep


start timestep kper="307" kstp="1" mode="normal"


 OUTPUT CONTROL FOR STRESS PERIOD 307 IS REPEATED USING SETTINGS FROM A PREVIOUS STRESS PERIOD.


 STRESS PERIOD 307 IS TRANSIENT


 REUSING WELS FROM LAST STRESS PERIOD

 REUSING DRNS FROM LAST STRESS PERIOD

 REUSING RCHS FROM LAST STRESS PERIOD


  VOLUME BUDGET FOR ENTIRE MODEL AT END OF TIME STEP    1, STRESS PERIOD 307
  ---------------------------------------------------------------------------------------------------

     CUMULATIVE VOLUME      L**3       RATES FOR THIS TIME STEP      L**3/T          PACKAGE NAME    
     ------------------                 ------------------------                     ----------------

           IN:                                      IN:
           ---                                      ---
              STO-SS =           0.0000                STO-SS =           0.0000     STORAGE         
              STO-SY =   783693303.4582                STO-SY =     1391211.7361     STORAGE         
                 WEL =           0.0000                   WEL =           0.0000     WEL_0           
                 DRN =           0.0000                   DRN =           0.0000     DRN_0           
                 RCH =   358133785.7912                   RCH =     1187808.3202     RCH_0           

            TOTAL IN =  1141827089.2495              TOTAL IN =     2579020.0563

          OUT:                                     OUT:
          ----                                     ----
              STO-SS =           0.0000                STO-SS =           0.0000     STORAGE         
              STO-SY =    81089693.6951                STO-SY =      130211.4062     STORAGE         
                 WEL =   241071606.8984                   WEL =       87802.1137     WEL_0           
                 DRN =   819665787.5073                   DRN =     2361006.5364     DRN_0           
                 RCH =           0.0000                   RCH =           0.0000     RCH_0           

           TOTAL OUT =  1141827088.1009             TOTAL OUT =     2579020.0563

            IN - OUT =           1.1486              IN - OUT =       1.3192E-06

 PERCENT DISCREPANCY =           0.00     PERCENT DISCREPANCY =           0.00




         TIME SUMMARY AT END OF TIME STEP    1 IN STRESS PERIOD  307
                          TIME STEP LENGTH =    1.00000    
                        STRESS PERIOD TIME =    1.00000    
                     TOTAL SIMULATION TIME =    307.000    

end timestep


start timestep kper="308" kstp="1" mode="normal"


 OUTPUT CONTROL FOR STRESS PERIOD 308 IS REPEATED USING SETTINGS FROM A PREVIOUS STRESS PERIOD.


 STRESS PERIOD 308 IS TRANSIENT


 REUSING WELS FROM LAST STRESS PERIOD

 REUSING DRNS FROM LAST STRESS PERIOD

 REUSING RCHS FROM LAST STRESS PERIOD


  VOLUME BUDGET FOR ENTIRE MODEL AT END OF TIME STEP    1, STRESS PERIOD 308
  ---------------------------------------------------------------------------------------------------

     CUMULATIVE VOLUME      L**3       RATES FOR THIS TIME STEP      L**3/T          PACKAGE NAME    
     ------------------                 ------------------------                     ----------------

           IN:                                      IN:
           ---                                      ---
              STO-SS =           0.0000                STO-SS =           0.0000     STORAGE         
              STO-SY =   785211171.2250                STO-SY =     1517867.7667     STORAGE         
                 WEL =           0.0000                   WEL =           0.0000     WEL_0           
                 DRN =           0.0000                   DRN =           0.0000     DRN_0           
                 RCH =   359333672.5511                   RCH =     1199886.7599     RCH_0           

            TOTAL IN =  1144544843.7761              TOTAL IN =     2717754.5266

          OUT:                                     OUT:
          ----                                     ----
              STO-SS =           0.0000                STO-SS =           0.0000     STORAGE         
              STO-SY =    81183314.0943                STO-SY =       93620.3992     STORAGE         
                 WEL =   241354288.6037                   WEL =      282681.7053     WEL_0           
                 DRN =   822007239.9295                   DRN =     2341452.4221     DRN_0           
                 RCH =           0.0000                   RCH =           0.0000     RCH_0           

           TOTAL OUT =  1144544842.6275             TOTAL OUT =     2717754.5266

            IN - OUT =           1.1486              IN - OUT =       8.9221E-07

 PERCENT DISCREPANCY =           0.00     PERCENT DISCREPANCY =           0.00




         TIME SUMMARY AT END OF TIME STEP    1 IN STRESS PERIOD  308
                          TIME STEP LENGTH =    1.00000    
                        STRESS PERIOD TIME =    1.00000    
                     TOTAL SIMULATION TIME =    308.000    

end timestep


start timestep kper="309" kstp="1" mode="normal"


 OUTPUT CONTROL FOR STRESS PERIOD 309 IS REPEATED USING SETTINGS FROM A PREVIOUS STRESS PERIOD.


 STRESS PERIOD 309 IS TRANSIENT


 REUSING WELS FROM LAST STRESS PERIOD

 REUSING DRNS FROM LAST STRESS PERIOD

 REUSING RCHS FROM LAST STRESS PERIOD


  VOLUME BUDGET FOR ENTIRE MODEL AT END OF TIME STEP    1, STRESS PERIOD 309
  ---------------------------------------------------------------------------------------------------

     CUMULATIVE VOLUME      L**3       RATES FOR THIS TIME STEP      L**3/T          PACKAGE NAME    
     ------------------                 ------------------------                     ----------------

           IN:                                      IN:
           ---                                      ---
              STO-SS =           0.0000                STO-SS =           0.0000     STORAGE         
              STO-SY =   786632386.4743                STO-SY =     1421215.2494     STORAGE         
                 WEL =           0.0000                   WEL =           0.0000     WEL_0           
                 DRN =           0.0000                   DRN =           0.0000     DRN_0           
                 RCH =   360447140.8284                   RCH =     1113468.2773     RCH_0           

            TOTAL IN =  1147079527.3028              TOTAL IN =     2534683.5267

          OUT:                                     OUT:
          ----                                     ----
              STO-SS =           0.0000                STO-SS =           0.0000     STORAGE         
              STO-SY =    81297832.3731                STO-SY =      114518.2788     STORAGE         
                 WEL =   241439834.4524                   WEL =       85545.8487     WEL_0           
                 DRN =   824341859.3286                   DRN =     2334619.3992     DRN_0           
                 RCH =           0.0000                   RCH =           0.0000     RCH_0           

           TOTAL OUT =  1147079526.1542             TOTAL OUT =     2534683.5267

            IN - OUT =           1.1486              IN - OUT =       1.3411E-07

 PERCENT DISCREPANCY =           0.00     PERCENT DISCREPANCY =           0.00




         TIME SUMMARY AT END OF TIME STEP    1 IN STRESS PERIOD  309
                          TIME STEP LENGTH =    1.00000    
                        STRESS PERIOD TIME =    1.00000    
                     TOTAL SIMULATION TIME =    309.000    

end timestep


start timestep kper="310" kstp="1" mode="normal"


 OUTPUT CONTROL FOR STRESS PERIOD 310 IS REPEATED USING SETTINGS FROM A PREVIOUS STRESS PERIOD.


 STRESS PERIOD 310 IS TRANSIENT


 REUSING WELS FROM LAST STRESS PERIOD

 REUSING DRNS FROM LAST STRESS PERIOD

 REUSING RCHS FROM LAST STRESS PERIOD


  VOLUME BUDGET FOR ENTIRE MODEL AT END OF TIME STEP    1, STRESS PERIOD 310
  ---------------------------------------------------------------------------------------------------

     CUMULATIVE VOLUME      L**3       RATES FOR THIS TIME STEP      L**3/T          PACKAGE NAME    
     ------------------                 ------------------------                     ----------------

           IN:                                      IN:
           ---                                      ---
              STO-SS =           0.0000                STO-SS =           0.0000     STORAGE         
              STO-SY =   788069523.4698                STO-SY =     1437136.9954     STORAGE         
                 WEL =           0.0000                   WEL =           0.0000     WEL_0           
                 DRN =           0.0000                   DRN =           0.0000     DRN_0           
                 RCH =   361562151.6263                   RCH =     1115010.7978     RCH_0           

            TOTAL IN =  1149631675.0960              TOTAL IN =     2552147.7933

          OUT:                                     OUT:
          ----                                     ----
              STO-SS =           0.0000                STO-SS =           0.0000     STORAGE         
              STO-SY =    81405686.6134                STO-SY =      107854.2403     STORAGE         
                 WEL =   241550092.5060                   WEL =      110258.0535     WEL_0           
                 DRN =   826675894.8280                   DRN =     2334035.4994     DRN_0           
                 RCH =           0.0000                   RCH =           0.0000     RCH_0           

           TOTAL OUT =  1149631673.9475             TOTAL OUT =     2552147.7933

            IN - OUT =           1.1486              IN - OUT =       4.8033E-06

 PERCENT DISCREPANCY =           0.00     PERCENT DISCREPANCY =           0.00




         TIME SUMMARY AT END OF TIME STEP    1 IN STRESS PERIOD  310
                          TIME STEP LENGTH =    1.00000    
                        STRESS PERIOD TIME =    1.00000    
                     TOTAL SIMULATION TIME =    310.000    

end timestep


start timestep kper="311" kstp="1" mode="normal"


 OUTPUT CONTROL FOR STRESS PERIOD 311 IS REPEATED USING SETTINGS FROM A PREVIOUS STRESS PERIOD.


 STRESS PERIOD 311 IS TRANSIENT


 REUSING WELS FROM LAST STRESS PERIOD

 REUSING DRNS FROM LAST STRESS PERIOD

 REUSING RCHS FROM LAST STRESS PERIOD


  VOLUME BUDGET FOR ENTIRE MODEL AT END OF TIME STEP    1, STRESS PERIOD 311
  ---------------------------------------------------------------------------------------------------

     CUMULATIVE VOLUME      L**3       RATES FOR THIS TIME STEP      L**3/T          PACKAGE NAME    
     ------------------                 ------------------------                     ----------------

           IN:                                      IN:
           ---                                      ---
              STO-SS =           0.0000                STO-SS =           0.0000     STORAGE         
              STO-SY =   789495103.3580                STO-SY =     1425579.8883     STORAGE         
                 WEL =           0.0000                   WEL =           0.0000     WEL_0           
                 DRN =           0.0000                   DRN =           0.0000     DRN_0           
                 RCH =   362649215.4494                   RCH =     1087063.8231     RCH_0           

            TOTAL IN =  1152144318.8074              TOTAL IN =     2512643.7114

          OUT:                                     OUT:
          ----                                     ----
              STO-SS =           0.0000                STO-SS =           0.0000     STORAGE         
              STO-SY =    81515954.4273                STO-SY =      110267.8138     STORAGE         
                 WEL =   241628271.7942                   WEL =       78179.2882     WEL_0           
                 DRN =   829000091.4373                   DRN =     2324196.6093     DRN_0           
                 RCH =           0.0000                   RCH =           0.0000     RCH_0           

           TOTAL OUT =  1152144317.6588             TOTAL OUT =     2512643.7114

            IN - OUT =           1.1486              IN - OUT =       1.1488E-06

 PERCENT DISCREPANCY =           0.00     PERCENT DISCREPANCY =           0.00




         TIME SUMMARY AT END OF TIME STEP    1 IN STRESS PERIOD  311
                          TIME STEP LENGTH =    1.00000    
                        STRESS PERIOD TIME =    1.00000    
                     TOTAL SIMULATION TIME =    311.000    

end timestep


start timestep kper="312" kstp="1" mode="normal"


 OUTPUT CONTROL FOR STRESS PERIOD 312 IS REPEATED USING SETTINGS FROM A PREVIOUS STRESS PERIOD.


 STRESS PERIOD 312 IS TRANSIENT


 REUSING WELS FROM LAST STRESS PERIOD

 REUSING DRNS FROM LAST STRESS PERIOD

 REUSING RCHS FROM LAST STRESS PERIOD


  VOLUME BUDGET FOR ENTIRE MODEL AT END OF TIME STEP    1, STRESS PERIOD 312
  ---------------------------------------------------------------------------------------------------

     CUMULATIVE VOLUME      L**3       RATES FOR THIS TIME STEP      L**3/T          PACKAGE NAME    
     ------------------                 ------------------------                     ----------------

           IN:                                      IN:
           ---                                      ---
              STO-SS =           0.0000                STO-SS =           0.0000     STORAGE         
              STO-SY =   790932028.4793                STO-SY =     1436925.1213     STORAGE         
                 WEL =           0.0000                   WEL =           0.0000     WEL_0           
                 DRN =           0.0000                   DRN =           0.0000     DRN_0           
                 RCH =   363757743.0412                   RCH =     1108527.5918     RCH_0           

            TOTAL IN =  1154689771.5205              TOTAL IN =     2545452.7131

          OUT:                                     OUT:
          ----                                     ----
              STO-SS =           0.0000                STO-SS =           0.0000     STORAGE         
              STO-SY =    81622535.5392                STO-SY =      106581.1119     STORAGE         
                 WEL =   241724543.4416                   WEL =       96271.6474     WEL_0           
                 DRN =   831342691.3911                   DRN =     2342599.9538     DRN_0           
                 RCH =           0.0000                   RCH =           0.0000     RCH_0           

           TOTAL OUT =  1154689770.3719             TOTAL OUT =     2545452.7131

            IN - OUT =           1.1486              IN - OUT =      -1.1604E-06

 PERCENT DISCREPANCY =           0.00     PERCENT DISCREPANCY =          -0.00




         TIME SUMMARY AT END OF TIME STEP    1 IN STRESS PERIOD  312
                          TIME STEP LENGTH =    1.00000    
                        STRESS PERIOD TIME =    1.00000    
                     TOTAL SIMULATION TIME =    312.000    

end timestep


start timestep kper="313" kstp="1" mode="normal"


 OUTPUT CONTROL FOR STRESS PERIOD 313 IS REPEATED USING SETTINGS FROM A PREVIOUS STRESS PERIOD.


 STRESS PERIOD 313 IS TRANSIENT


 REUSING WELS FROM LAST STRESS PERIOD

 REUSING DRNS FROM LAST STRESS PERIOD

 REUSING RCHS FROM LAST STRESS PERIOD


  VOLUME BUDGET FOR ENTIRE MODEL AT END OF TIME STEP    1, STRESS PERIOD 313
  ---------------------------------------------------------------------------------------------------

     CUMULATIVE VOLUME      L**3       RATES FOR THIS TIME STEP      L**3/T          PACKAGE NAME    
     ------------------                 ------------------------                     ----------------

           IN:                                      IN:
           ---                                      ---
              STO-SS =           0.0000                STO-SS =           0.0000     STORAGE         
              STO-SY =   792373120.0382                STO-SY =     1441091.5589     STORAGE         
                 WEL =           0.0000                   WEL =           0.0000     WEL_0           
                 DRN =           0.0000                   DRN =           0.0000     DRN_0           
                 RCH =   364797683.8746                   RCH =     1039940.8334     RCH_0           

            TOTAL IN =  1157170803.9128              TOTAL IN =     2481032.3923

          OUT:                                     OUT:
          ----                                     ----
              STO-SS =           0.0000                STO-SS =           0.0000     STORAGE         
              STO-SY =    81723835.0560                STO-SY =      101299.5168     STORAGE         
                 WEL =   241801558.9497                   WEL =       77015.5081     WEL_0           
                 DRN =   833645408.7585                   DRN =     2302717.3674     DRN_0           
                 RCH =           0.0000                   RCH =           0.0000     RCH_0           

           TOTAL OUT =  1157170802.7642             TOTAL OUT =     2481032.3923

            IN - OUT =           1.1486              IN - OUT =       1.5874E-06

 PERCENT DISCREPANCY =           0.00     PERCENT DISCREPANCY =           0.00




         TIME SUMMARY AT END OF TIME STEP    1 IN STRESS PERIOD  313
                          TIME STEP LENGTH =    1.00000    
                        STRESS PERIOD TIME =    1.00000    
                     TOTAL SIMULATION TIME =    313.000    

end timestep


start timestep kper="314" kstp="1" mode="normal"


 OUTPUT CONTROL FOR STRESS PERIOD 314 IS REPEATED USING SETTINGS FROM A PREVIOUS STRESS PERIOD.


 STRESS PERIOD 314 IS TRANSIENT


 REUSING WELS FROM LAST STRESS PERIOD

 REUSING DRNS FROM LAST STRESS PERIOD

 REUSING RCHS FROM LAST STRESS PERIOD


  VOLUME BUDGET FOR ENTIRE MODEL AT END OF TIME STEP    1, STRESS PERIOD 314
  ---------------------------------------------------------------------------------------------------

     CUMULATIVE VOLUME      L**3       RATES FOR THIS TIME STEP      L**3/T          PACKAGE NAME    
     ------------------                 ------------------------                     ----------------

           IN:                                      IN:
           ---                                      ---
              STO-SS =           0.0000                STO-SS =           0.0000     STORAGE         
              STO-SY =   793928111.3818                STO-SY =     1554991.3437     STORAGE         
                 WEL =           0.0000                   WEL =           0.0000     WEL_0           
                 DRN =           0.0000                   DRN =           0.0000     DRN_0           
                 RCH =   365890541.0870                   RCH =     1092857.2124     RCH_0           

            TOTAL IN =  1159818652.4688              TOTAL IN =     2647848.5561

          OUT:                                     OUT:
          ----                                     ----
              STO-SS =           0.0000                STO-SS =           0.0000     STORAGE         
              STO-SY =    81818702.2327                STO-SY =       94867.1767     STORAGE         
                 WEL =   242027373.4572                   WEL =      225814.5075     WEL_0           
                 DRN =   835972575.6304                   DRN =     2327166.8719     DRN_0           
                 RCH =           0.0000                   RCH =           0.0000     RCH_0           

           TOTAL OUT =  1159818651.3203             TOTAL OUT =     2647848.5561

            IN - OUT =           1.1486              IN - OUT =       1.3756E-06

 PERCENT DISCREPANCY =           0.00     PERCENT DISCREPANCY =           0.00




         TIME SUMMARY AT END OF TIME STEP    1 IN STRESS PERIOD  314
                          TIME STEP LENGTH =    1.00000    
                        STRESS PERIOD TIME =    1.00000    
                     TOTAL SIMULATION TIME =    314.000    

end timestep


start timestep kper="315" kstp="1" mode="normal"


 OUTPUT CONTROL FOR STRESS PERIOD 315 IS REPEATED USING SETTINGS FROM A PREVIOUS STRESS PERIOD.


 STRESS PERIOD 315 IS TRANSIENT


 REUSING WELS FROM LAST STRESS PERIOD

 REUSING DRNS FROM LAST STRESS PERIOD

 REUSING RCHS FROM LAST STRESS PERIOD


  VOLUME BUDGET FOR ENTIRE MODEL AT END OF TIME STEP    1, STRESS PERIOD 315
  ---------------------------------------------------------------------------------------------------

     CUMULATIVE VOLUME      L**3       RATES FOR THIS TIME STEP      L**3/T          PACKAGE NAME    
     ------------------                 ------------------------                     ----------------

           IN:                                      IN:
           ---                                      ---
              STO-SS =           0.0000                STO-SS =           0.0000     STORAGE         
              STO-SY =   795375429.0080                STO-SY =     1447317.6262     STORAGE         
                 WEL =           0.0000                   WEL =           0.0000     WEL_0           
                 DRN =           0.0000                   DRN =           0.0000     DRN_0           
                 RCH =   366924246.9071                   RCH =     1033705.8201     RCH_0           

            TOTAL IN =  1162299675.9151              TOTAL IN =     2481023.4462

          OUT:                                     OUT:
          ----                                     ----
              STO-SS =           0.0000                STO-SS =           0.0000     STORAGE         
              STO-SY =    81912507.4016                STO-SY =       93805.1689     STORAGE         
                 WEL =   242114280.1298                   WEL =       86906.6726     WEL_0           
                 DRN =   838272887.2351                   DRN =     2300311.6047     DRN_0           
                 RCH =           0.0000                   RCH =           0.0000     RCH_0           

           TOTAL OUT =  1162299674.7665             TOTAL OUT =     2481023.4462

            IN - OUT =           1.1486              IN - OUT =      -1.7644E-06

 PERCENT DISCREPANCY =           0.00     PERCENT DISCREPANCY =          -0.00




         TIME SUMMARY AT END OF TIME STEP    1 IN STRESS PERIOD  315
                          TIME STEP LENGTH =    1.00000    
                        STRESS PERIOD TIME =    1.00000    
                     TOTAL SIMULATION TIME =    315.000    

end timestep


start timestep kper="316" kstp="1" mode="normal"


 OUTPUT CONTROL FOR STRESS PERIOD 316 IS REPEATED USING SETTINGS FROM A PREVIOUS STRESS PERIOD.


 STRESS PERIOD 316 IS TRANSIENT


 REUSING WELS FROM LAST STRESS PERIOD

 REUSING DRNS FROM LAST STRESS PERIOD

 REUSING RCHS FROM LAST STRESS PERIOD


  VOLUME BUDGET FOR ENTIRE MODEL AT END OF TIME STEP    1, STRESS PERIOD 316
  ---------------------------------------------------------------------------------------------------

     CUMULATIVE VOLUME      L**3       RATES FOR THIS TIME STEP      L**3/T          PACKAGE NAME    
     ------------------                 ------------------------                     ----------------

           IN:                                      IN:
           ---                                      ---
              STO-SS =           0.0000                STO-SS =           0.0000     STORAGE         
              STO-SY =   797283799.8962                STO-SY =     1908370.8882     STORAGE         
                 WEL =           0.0000                   WEL =           0.0000     WEL_0           
                 DRN =           0.0000                   DRN =           0.0000     DRN_0           
                 RCH =   368022268.3800                   RCH =     1098021.4730     RCH_0           

            TOTAL IN =  1165306068.2762              TOTAL IN =     3006392.3611

          OUT:                                     OUT:
          ----                                     ----
              STO-SS =           0.0000                STO-SS =           0.0000     STORAGE         
              STO-SY =    81938149.3758                STO-SY =       25641.9743     STORAGE         
                 WEL =   242814180.9568                   WEL =      699900.8269     WEL_0           
                 DRN =   840553736.7950                   DRN =     2280849.5599     DRN_0           
                 RCH =           0.0000                   RCH =           0.0000     RCH_0           

           TOTAL OUT =  1165306067.1276             TOTAL OUT =     3006392.3611

            IN - OUT =           1.1486              IN - OUT =       1.7229E-07

 PERCENT DISCREPANCY =           0.00     PERCENT DISCREPANCY =           0.00




         TIME SUMMARY AT END OF TIME STEP    1 IN STRESS PERIOD  316
                          TIME STEP LENGTH =    1.00000    
                        STRESS PERIOD TIME =    1.00000    
                     TOTAL SIMULATION TIME =    316.000    

end timestep


start timestep kper="317" kstp="1" mode="normal"


 OUTPUT CONTROL FOR STRESS PERIOD 317 IS REPEATED USING SETTINGS FROM A PREVIOUS STRESS PERIOD.


 STRESS PERIOD 317 IS TRANSIENT


 REUSING WELS FROM LAST STRESS PERIOD

 REUSING DRNS FROM LAST STRESS PERIOD

 REUSING RCHS FROM LAST STRESS PERIOD


  VOLUME BUDGET FOR ENTIRE MODEL AT END OF TIME STEP    1, STRESS PERIOD 317
  ---------------------------------------------------------------------------------------------------

     CUMULATIVE VOLUME      L**3       RATES FOR THIS TIME STEP      L**3/T          PACKAGE NAME    
     ------------------                 ------------------------                     ----------------

           IN:                                      IN:
           ---                                      ---
              STO-SS =           0.0000                STO-SS =           0.0000     STORAGE         
              STO-SY =   798728266.7421                STO-SY =     1444466.8459     STORAGE         
                 WEL =           0.0000                   WEL =           0.0000     WEL_0           
                 DRN =           0.0000                   DRN =           0.0000     DRN_0           
                 RCH =   369063041.9680                   RCH =     1040773.5880     RCH_0           

            TOTAL IN =  1167791308.7101              TOTAL IN =     2485240.4339

          OUT:                                     OUT:
          ----                                     ----
              STO-SS =           0.0000                STO-SS =           0.0000     STORAGE         
              STO-SY =    82037427.8877                STO-SY =       99278.5118     STORAGE         
                 WEL =   242891615.2414                   WEL =       77434.2847     WEL_0           
                 DRN =   842862264.4324                   DRN =     2308527.6374     DRN_0           
                 RCH =           0.0000                   RCH =           0.0000     RCH_0           

           TOTAL OUT =  1167791307.5615             TOTAL OUT =     2485240.4339

            IN - OUT =           1.1486              IN - OUT =       1.0300E-06

 PERCENT DISCREPANCY =           0.00     PERCENT DISCREPANCY =           0.00




         TIME SUMMARY AT END OF TIME STEP    1 IN STRESS PERIOD  317
                          TIME STEP LENGTH =    1.00000    
                        STRESS PERIOD TIME =    1.00000    
                     TOTAL SIMULATION TIME =    317.000    

end timestep


start timestep kper="318" kstp="1" mode="normal"


 OUTPUT CONTROL FOR STRESS PERIOD 318 IS REPEATED USING SETTINGS FROM A PREVIOUS STRESS PERIOD.


 STRESS PERIOD 318 IS TRANSIENT


 REUSING WELS FROM LAST STRESS PERIOD

 REUSING DRNS FROM LAST STRESS PERIOD

 REUSING RCHS FROM LAST STRESS PERIOD


  VOLUME BUDGET FOR ENTIRE MODEL AT END OF TIME STEP    1, STRESS PERIOD 318
  ---------------------------------------------------------------------------------------------------

     CUMULATIVE VOLUME      L**3       RATES FOR THIS TIME STEP      L**3/T          PACKAGE NAME    
     ------------------                 ------------------------                     ----------------

           IN:                                      IN:
           ---                                      ---
              STO-SS =           0.0000                STO-SS =           0.0000     STORAGE         
              STO-SY =   800180699.1234                STO-SY =     1452432.3813     STORAGE         
                 WEL =           0.0000                   WEL =           0.0000     WEL_0           
                 DRN =           0.0000                   DRN =           0.0000     DRN_0           
                 RCH =   370102719.9310                   RCH =     1039677.9630     RCH_0           

            TOTAL IN =  1170283419.0544              TOTAL IN =     2492110.3443

          OUT:                                     OUT:
          ----                                     ----
              STO-SS =           0.0000                STO-SS =           0.0000     STORAGE         
              STO-SY =    82120879.8447                STO-SY =       83451.9570     STORAGE         
                 WEL =   243005003.4167                   WEL =      113388.1753     WEL_0           
                 DRN =   845157533.9041                   DRN =     2295269.4717     DRN_0           
                 RCH =           0.0000                   RCH =           0.0000     RCH_0           

           TOTAL OUT =  1170283417.1655             TOTAL OUT =     2492109.6040

            IN - OUT =           1.8889              IN - OUT =           0.7403

 PERCENT DISCREPANCY =           0.00     PERCENT DISCREPANCY =           0.00




         TIME SUMMARY AT END OF TIME STEP    1 IN STRESS PERIOD  318
                          TIME STEP LENGTH =    1.00000    
                        STRESS PERIOD TIME =    1.00000    
                     TOTAL SIMULATION TIME =    318.000    

end timestep


start timestep kper="319" kstp="1" mode="normal"


 OUTPUT CONTROL FOR STRESS PERIOD 319 IS REPEATED USING SETTINGS FROM A PREVIOUS STRESS PERIOD.


 STRESS PERIOD 319 IS TRANSIENT


 REUSING WELS FROM LAST STRESS PERIOD

 REUSING DRNS FROM LAST STRESS PERIOD

 REUSING RCHS FROM LAST STRESS PERIOD


  VOLUME BUDGET FOR ENTIRE MODEL AT END OF TIME STEP    1, STRESS PERIOD 319
  ---------------------------------------------------------------------------------------------------

     CUMULATIVE VOLUME      L**3       RATES FOR THIS TIME STEP      L**3/T          PACKAGE NAME    
     ------------------                 ------------------------                     ----------------

           IN:                                      IN:
           ---                                      ---
              STO-SS =           0.0000                STO-SS =           0.0000     STORAGE         
              STO-SY =   801635235.0395                STO-SY =     1454535.9161     STORAGE         
                 WEL =           0.0000                   WEL =           0.0000     WEL_0           
                 DRN =           0.0000                   DRN =           0.0000     DRN_0           
                 RCH =   371112458.8386                   RCH =     1009738.9076     RCH_0           

            TOTAL IN =  1172747693.8781              TOTAL IN =     2464274.8237

          OUT:                                     OUT:
          ----                                     ----
              STO-SS =           0.0000                STO-SS =           0.0000     STORAGE         
              STO-SY =    82211558.6468                STO-SY =       90678.8022     STORAGE         
                 WEL =   243091107.2392                   WEL =       86103.8225     WEL_0           
                 DRN =   847445026.1032                   DRN =     2287492.1991     DRN_0           
                 RCH =           0.0000                   RCH =           0.0000     RCH_0           

           TOTAL OUT =  1172747691.9892             TOTAL OUT =     2464274.8237

            IN - OUT =           1.8889              IN - OUT =       2.1374E-07

 PERCENT DISCREPANCY =           0.00     PERCENT DISCREPANCY =           0.00




         TIME SUMMARY AT END OF TIME STEP    1 IN STRESS PERIOD  319
                          TIME STEP LENGTH =    1.00000    
                        STRESS PERIOD TIME =    1.00000    
                     TOTAL SIMULATION TIME =    319.000    

end timestep


start timestep kper="320" kstp="1" mode="normal"


 OUTPUT CONTROL FOR STRESS PERIOD 320 IS REPEATED USING SETTINGS FROM A PREVIOUS STRESS PERIOD.


 STRESS PERIOD 320 IS TRANSIENT


 REUSING WELS FROM LAST STRESS PERIOD

 REUSING DRNS FROM LAST STRESS PERIOD

 REUSING RCHS FROM LAST STRESS PERIOD


  VOLUME BUDGET FOR ENTIRE MODEL AT END OF TIME STEP    1, STRESS PERIOD 320
  ---------------------------------------------------------------------------------------------------

     CUMULATIVE VOLUME      L**3       RATES FOR THIS TIME STEP      L**3/T          PACKAGE NAME    
     ------------------                 ------------------------                     ----------------

           IN:                                      IN:
           ---                                      ---
              STO-SS =           0.0000                STO-SS =           0.0000     STORAGE         
              STO-SY =   803081104.5069                STO-SY =     1445869.4674     STORAGE         
                 WEL =           0.0000                   WEL =           0.0000     WEL_0           
                 DRN =           0.0000                   DRN =           0.0000     DRN_0           
                 RCH =   372150217.0877                   RCH =     1037758.2491     RCH_0           

            TOTAL IN =  1175231321.5946              TOTAL IN =     2483627.7164

          OUT:                                     OUT:
          ----                                     ----
              STO-SS =           0.0000                STO-SS =           0.0000     STORAGE         
              STO-SY =    82299741.3389                STO-SY =       88182.6921     STORAGE         
                 WEL =   243189991.7468                   WEL =       98884.5076     WEL_0           
                 DRN =   849741586.6200                   DRN =     2296560.5167     DRN_0           
                 RCH =           0.0000                   RCH =           0.0000     RCH_0           

           TOTAL OUT =  1175231319.7057             TOTAL OUT =     2483627.7164

            IN - OUT =           1.8889              IN - OUT =       2.2561E-06

 PERCENT DISCREPANCY =           0.00     PERCENT DISCREPANCY =           0.00




         TIME SUMMARY AT END OF TIME STEP    1 IN STRESS PERIOD  320
                          TIME STEP LENGTH =    1.00000    
                        STRESS PERIOD TIME =    1.00000    
                     TOTAL SIMULATION TIME =    320.000    

end timestep


start timestep kper="321" kstp="1" mode="normal"


 OUTPUT CONTROL FOR STRESS PERIOD 321 IS REPEATED USING SETTINGS FROM A PREVIOUS STRESS PERIOD.


 STRESS PERIOD 321 IS TRANSIENT


 REUSING WELS FROM LAST STRESS PERIOD

 REUSING DRNS FROM LAST STRESS PERIOD

 REUSING RCHS FROM LAST STRESS PERIOD


  VOLUME BUDGET FOR ENTIRE MODEL AT END OF TIME STEP    1, STRESS PERIOD 321
  ---------------------------------------------------------------------------------------------------

     CUMULATIVE VOLUME      L**3       RATES FOR THIS TIME STEP      L**3/T          PACKAGE NAME    
     ------------------                 ------------------------                     ----------------

           IN:                                      IN:
           ---                                      ---
              STO-SS =           0.0000                STO-SS =           0.0000     STORAGE         
              STO-SY =   804551331.6230                STO-SY =     1470227.1161     STORAGE         
                 WEL =           0.0000                   WEL =           0.0000     WEL_0           
                 DRN =           0.0000                   DRN =           0.0000     DRN_0           
                 RCH =   373157516.1316                   RCH =     1007299.0439     RCH_0           

            TOTAL IN =  1177708847.7546              TOTAL IN =     2477526.1600

          OUT:                                     OUT:
          ----                                     ----
              STO-SS =           0.0000                STO-SS =           0.0000     STORAGE         
              STO-SY =    82382604.0564                STO-SY =       82862.7175     STORAGE         
                 WEL =   243308648.7279                   WEL =      118656.9811     WEL_0           
                 DRN =   852017593.0814                   DRN =     2276006.4614     DRN_0           
                 RCH =           0.0000                   RCH =           0.0000     RCH_0           

           TOTAL OUT =  1177708845.8657             TOTAL OUT =     2477526.1600

            IN - OUT =           1.8889              IN - OUT =       1.1129E-06

 PERCENT DISCREPANCY =           0.00     PERCENT DISCREPANCY =           0.00




         TIME SUMMARY AT END OF TIME STEP    1 IN STRESS PERIOD  321
                          TIME STEP LENGTH =    1.00000    
                        STRESS PERIOD TIME =    1.00000    
                     TOTAL SIMULATION TIME =    321.000    

end timestep


start timestep kper="322" kstp="1" mode="normal"


 OUTPUT CONTROL FOR STRESS PERIOD 322 IS REPEATED USING SETTINGS FROM A PREVIOUS STRESS PERIOD.


 STRESS PERIOD 322 IS TRANSIENT


 REUSING WELS FROM LAST STRESS PERIOD

 REUSING DRNS FROM LAST STRESS PERIOD

 REUSING RCHS FROM LAST STRESS PERIOD


  VOLUME BUDGET FOR ENTIRE MODEL AT END OF TIME STEP    1, STRESS PERIOD 322
  ---------------------------------------------------------------------------------------------------

     CUMULATIVE VOLUME      L**3       RATES FOR THIS TIME STEP      L**3/T          PACKAGE NAME    
     ------------------                 ------------------------                     ----------------

           IN:                                      IN:
           ---                                      ---
              STO-SS =           0.0000                STO-SS =           0.0000     STORAGE         
              STO-SY =   805994719.7047                STO-SY =     1443388.0817     STORAGE         
                 WEL =           0.0000                   WEL =           0.0000     WEL_0           
                 DRN =           0.0000                   DRN =           0.0000     DRN_0           
                 RCH =   374170933.0274                   RCH =     1013416.8958     RCH_0           

            TOTAL IN =  1180165652.7321              TOTAL IN =     2456804.9775

          OUT:                                     OUT:
          ----                                     ----
              STO-SS =           0.0000                STO-SS =           0.0000     STORAGE         
              STO-SY =    82470194.7583                STO-SY =       87590.7019     STORAGE         
                 WEL =   243396278.7429                   WEL =       87630.0151     WEL_0           
                 DRN =   854299177.3419                   DRN =     2281584.2605     DRN_0           
                 RCH =           0.0000                   RCH =           0.0000     RCH_0           

           TOTAL OUT =  1180165650.8431             TOTAL OUT =     2456804.9775

            IN - OUT =           1.8889              IN - OUT =      -1.6950E-07

 PERCENT DISCREPANCY =           0.00     PERCENT DISCREPANCY =          -0.00




         TIME SUMMARY AT END OF TIME STEP    1 IN STRESS PERIOD  322
                          TIME STEP LENGTH =    1.00000    
                        STRESS PERIOD TIME =    1.00000    
                     TOTAL SIMULATION TIME =    322.000    

end timestep


start timestep kper="323" kstp="1" mode="normal"


 OUTPUT CONTROL FOR STRESS PERIOD 323 IS REPEATED USING SETTINGS FROM A PREVIOUS STRESS PERIOD.


 STRESS PERIOD 323 IS TRANSIENT


 REUSING WELS FROM LAST STRESS PERIOD

 REUSING DRNS FROM LAST STRESS PERIOD

 REUSING RCHS FROM LAST STRESS PERIOD


  VOLUME BUDGET FOR ENTIRE MODEL AT END OF TIME STEP    1, STRESS PERIOD 323
  ---------------------------------------------------------------------------------------------------

     CUMULATIVE VOLUME      L**3       RATES FOR THIS TIME STEP      L**3/T          PACKAGE NAME    
     ------------------                 ------------------------                     ----------------

           IN:                                      IN:
           ---                                      ---
              STO-SS =           0.0000                STO-SS =           0.0000     STORAGE         
              STO-SY =   807897317.7916                STO-SY =     1902598.0869     STORAGE         
                 WEL =           0.0000                   WEL =           0.0000     WEL_0           
                 DRN =           0.0000                   DRN =           0.0000     DRN_0           
                 RCH =   375205463.9669                   RCH =     1034530.9396     RCH_0           

            TOTAL IN =  1183102781.7585              TOTAL IN =     2937129.0265

          OUT:                                     OUT:
          ----                                     ----
              STO-SS =           0.0000                STO-SS =           0.0000     STORAGE         
              STO-SY =    82513812.8028                STO-SY =       43618.0445     STORAGE         
                 WEL =   244055091.6658                   WEL =      658812.9229     WEL_0           
                 DRN =   856533875.4010                   DRN =     2234698.0591     DRN_0           
                 RCH =           0.0000                   RCH =           0.0000     RCH_0           

           TOTAL OUT =  1183102779.8696             TOTAL OUT =     2937129.0265

            IN - OUT =           1.8889              IN - OUT =       9.8720E-08

 PERCENT DISCREPANCY =           0.00     PERCENT DISCREPANCY =           0.00




         TIME SUMMARY AT END OF TIME STEP    1 IN STRESS PERIOD  323
                          TIME STEP LENGTH =    1.00000    
                        STRESS PERIOD TIME =    1.00000    
                     TOTAL SIMULATION TIME =    323.000    

end timestep


start timestep kper="324" kstp="1" mode="normal"


 OUTPUT CONTROL FOR STRESS PERIOD 324 IS REPEATED USING SETTINGS FROM A PREVIOUS STRESS PERIOD.


 STRESS PERIOD 324 IS TRANSIENT


 REUSING WELS FROM LAST STRESS PERIOD

 REUSING DRNS FROM LAST STRESS PERIOD

 REUSING RCHS FROM LAST STRESS PERIOD


  VOLUME BUDGET FOR ENTIRE MODEL AT END OF TIME STEP    1, STRESS PERIOD 324
  ---------------------------------------------------------------------------------------------------

     CUMULATIVE VOLUME      L**3       RATES FOR THIS TIME STEP      L**3/T          PACKAGE NAME    
     ------------------                 ------------------------                     ----------------

           IN:                                      IN:
           ---                                      ---
              STO-SS =           0.0000                STO-SS =           0.0000     STORAGE         
              STO-SY =   809340719.3886                STO-SY =     1443401.5971     STORAGE         
                 WEL =           0.0000                   WEL =           0.0000     WEL_0           
                 DRN =           0.0000                   DRN =           0.0000     DRN_0           
                 RCH =   376228956.7128                   RCH =     1023492.7459     RCH_0           

            TOTAL IN =  1185569676.1015              TOTAL IN =     2466894.3430

          OUT:                                     OUT:
          ----                                     ----
              STO-SS =           0.0000                STO-SS =           0.0000     STORAGE         
              STO-SY =    82600315.8048                STO-SY =       86503.0019     STORAGE         
                 WEL =   244149537.1188                   WEL =       94445.4530     WEL_0           
                 DRN =   858819821.2890                   DRN =     2285945.8880     DRN_0           
                 RCH =           0.0000                   RCH =           0.0000     RCH_0           

           TOTAL OUT =  1185569674.2126             TOTAL OUT =     2466894.3430

            IN - OUT =           1.8889              IN - OUT =       1.2475E-06

 PERCENT DISCREPANCY =           0.00     PERCENT DISCREPANCY =           0.00




         TIME SUMMARY AT END OF TIME STEP    1 IN STRESS PERIOD  324
                          TIME STEP LENGTH =    1.00000    
                        STRESS PERIOD TIME =    1.00000    
                     TOTAL SIMULATION TIME =    324.000    

end timestep


start timestep kper="325" kstp="1" mode="normal"


 OUTPUT CONTROL FOR STRESS PERIOD 325 IS REPEATED USING SETTINGS FROM A PREVIOUS STRESS PERIOD.


 STRESS PERIOD 325 IS TRANSIENT


 REUSING WELS FROM LAST STRESS PERIOD

 REUSING DRNS FROM LAST STRESS PERIOD

 REUSING RCHS FROM LAST STRESS PERIOD


  VOLUME BUDGET FOR ENTIRE MODEL AT END OF TIME STEP    1, STRESS PERIOD 325
  ---------------------------------------------------------------------------------------------------

     CUMULATIVE VOLUME      L**3       RATES FOR THIS TIME STEP      L**3/T          PACKAGE NAME    
     ------------------                 ------------------------                     ----------------

           IN:                                      IN:
           ---                                      ---
              STO-SS =           0.0000                STO-SS =           0.0000     STORAGE         
              STO-SY =   811012800.9329                STO-SY =     1672081.5443     STORAGE         
                 WEL =           0.0000                   WEL =           0.0000     WEL_0           
                 DRN =           0.0000                   DRN =           0.0000     DRN_0           
                 RCH =   377245723.8795                   RCH =     1016767.1667     RCH_0           

            TOTAL IN =  1188258524.8124              TOTAL IN =     2688848.7109

          OUT:                                     OUT:
          ----                                     ----
              STO-SS =           0.0000                STO-SS =           0.0000     STORAGE         
              STO-SY =    82621699.7534                STO-SY =       21383.9486     STORAGE         
                 WEL =   244624148.6192                   WEL =      474611.5004     WEL_0           
                 DRN =   861012674.5509                   DRN =     2192853.2619     DRN_0           
                 RCH =           0.0000                   RCH =           0.0000     RCH_0           

           TOTAL OUT =  1188258522.9235             TOTAL OUT =     2688848.7109

            IN - OUT =           1.8889              IN - OUT =       1.3974E-06

 PERCENT DISCREPANCY =           0.00     PERCENT DISCREPANCY =           0.00




         TIME SUMMARY AT END OF TIME STEP    1 IN STRESS PERIOD  325
                          TIME STEP LENGTH =    1.00000    
                        STRESS PERIOD TIME =    1.00000    
                     TOTAL SIMULATION TIME =    325.000    

end timestep


start timestep kper="326" kstp="1" mode="normal"


 OUTPUT CONTROL FOR STRESS PERIOD 326 IS REPEATED USING SETTINGS FROM A PREVIOUS STRESS PERIOD.


 STRESS PERIOD 326 IS TRANSIENT


 REUSING WELS FROM LAST STRESS PERIOD

 REUSING DRNS FROM LAST STRESS PERIOD

 REUSING RCHS FROM LAST STRESS PERIOD


  VOLUME BUDGET FOR ENTIRE MODEL AT END OF TIME STEP    1, STRESS PERIOD 326
  ---------------------------------------------------------------------------------------------------

     CUMULATIVE VOLUME      L**3       RATES FOR THIS TIME STEP      L**3/T          PACKAGE NAME    
     ------------------                 ------------------------                     ----------------

           IN:                                      IN:
           ---                                      ---
              STO-SS =           0.0000                STO-SS =           0.0000     STORAGE         
              STO-SY =   812475689.9312                STO-SY =     1462888.9983     STORAGE         
                 WEL =           0.0000                   WEL =           0.0000     WEL_0           
                 DRN =           0.0000                   DRN =           0.0000     DRN_0           
                 RCH =   378284487.2355                   RCH =     1038763.3560     RCH_0           

            TOTAL IN =  1190760177.1667              TOTAL IN =     2501652.3543

          OUT:                                     OUT:
          ----                                     ----
              STO-SS =           0.0000                STO-SS =           0.0000     STORAGE         
              STO-SY =    82710544.5438                STO-SY =       88844.7904     STORAGE         
                 WEL =   244744250.6475                   WEL =      120102.0283     WEL_0           
                 DRN =   863305380.0865                   DRN =     2292705.5356     DRN_0           
                 RCH =           0.0000                   RCH =           0.0000     RCH_0           

           TOTAL OUT =  1190760175.2778             TOTAL OUT =     2501652.3543

            IN - OUT =           1.8889              IN - OUT =       1.6126E-06

 PERCENT DISCREPANCY =           0.00     PERCENT DISCREPANCY =           0.00




         TIME SUMMARY AT END OF TIME STEP    1 IN STRESS PERIOD  326
                          TIME STEP LENGTH =    1.00000    
                        STRESS PERIOD TIME =    1.00000    
                     TOTAL SIMULATION TIME =    326.000    

end timestep


start timestep kper="327" kstp="1" mode="normal"


 OUTPUT CONTROL FOR STRESS PERIOD 327 IS REPEATED USING SETTINGS FROM A PREVIOUS STRESS PERIOD.


 STRESS PERIOD 327 IS TRANSIENT


 REUSING WELS FROM LAST STRESS PERIOD

 REUSING DRNS FROM LAST STRESS PERIOD

 REUSING RCHS FROM LAST STRESS PERIOD


  VOLUME BUDGET FOR ENTIRE MODEL AT END OF TIME STEP    1, STRESS PERIOD 327
  ---------------------------------------------------------------------------------------------------

     CUMULATIVE VOLUME      L**3       RATES FOR THIS TIME STEP      L**3/T          PACKAGE NAME    
     ------------------                 ------------------------                     ----------------

           IN:                                      IN:
           ---                                      ---
              STO-SS =           0.0000                STO-SS =           0.0000     STORAGE         
              STO-SY =   814289705.7637                STO-SY =     1814015.8325     STORAGE         
                 WEL =           0.0000                   WEL =           0.0000     WEL_0           
                 DRN =           0.0000                   DRN =           0.0000     DRN_0           
                 RCH =   379323516.0961                   RCH =     1039028.8606     RCH_0           

            TOTAL IN =  1193613221.8599              TOTAL IN =     2853044.6932

          OUT:                                     OUT:
          ----                                     ----
              STO-SS =           0.0000                STO-SS =           0.0000     STORAGE         
              STO-SY =    82747570.4891                STO-SY =       37025.9453     STORAGE         
                 WEL =   245367632.5744                   WEL =      623381.9268     WEL_0           
                 DRN =   865498016.9075                   DRN =     2192636.8210     DRN_0           
                 RCH =           0.0000                   RCH =           0.0000     RCH_0           

           TOTAL OUT =  1193613219.9709             TOTAL OUT =     2853044.6932

            IN - OUT =           1.8889              IN - OUT =      -1.2377E-06

 PERCENT DISCREPANCY =           0.00     PERCENT DISCREPANCY =          -0.00




         TIME SUMMARY AT END OF TIME STEP    1 IN STRESS PERIOD  327
                          TIME STEP LENGTH =    1.00000    
                        STRESS PERIOD TIME =    1.00000    
                     TOTAL SIMULATION TIME =    327.000    

end timestep


start timestep kper="328" kstp="1" mode="normal"


 OUTPUT CONTROL FOR STRESS PERIOD 328 IS REPEATED USING SETTINGS FROM A PREVIOUS STRESS PERIOD.


 STRESS PERIOD 328 IS TRANSIENT


 REUSING WELS FROM LAST STRESS PERIOD

 REUSING DRNS FROM LAST STRESS PERIOD

 REUSING RCHS FROM LAST STRESS PERIOD


  VOLUME BUDGET FOR ENTIRE MODEL AT END OF TIME STEP    1, STRESS PERIOD 328
  ---------------------------------------------------------------------------------------------------

     CUMULATIVE VOLUME      L**3       RATES FOR THIS TIME STEP      L**3/T          PACKAGE NAME    
     ------------------                 ------------------------                     ----------------

           IN:                                      IN:
           ---                                      ---
              STO-SS =           0.0000                STO-SS =           0.0000     STORAGE         
              STO-SY =   815884515.0499                STO-SY =     1594809.2862     STORAGE         
                 WEL =           0.0000                   WEL =           0.0000     WEL_0           
                 DRN =           0.0000                   DRN =           0.0000     DRN_0           
                 RCH =   380354704.9340                   RCH =     1031188.8379     RCH_0           

            TOTAL IN =  1196239219.9839              TOTAL IN =     2625998.1241

          OUT:                                     OUT:
          ----                                     ----
              STO-SS =           0.0000                STO-SS =           0.0000     STORAGE         
              STO-SY =    82779893.5905                STO-SY =       32323.1013     STORAGE         
                 WEL =   245743042.0438                   WEL =      375409.4695     WEL_0           
                 DRN =   867716282.4608                   DRN =     2218265.5533     DRN_0           
                 RCH =           0.0000                   RCH =           0.0000     RCH_0           

           TOTAL OUT =  1196239218.0950             TOTAL OUT =     2625998.1241

            IN - OUT =           1.8889              IN - OUT =      -9.7929E-07

 PERCENT DISCREPANCY =           0.00     PERCENT DISCREPANCY =          -0.00




         TIME SUMMARY AT END OF TIME STEP    1 IN STRESS PERIOD  328
                          TIME STEP LENGTH =    1.00000    
                        STRESS PERIOD TIME =    1.00000    
                     TOTAL SIMULATION TIME =    328.000    

end timestep


start timestep kper="329" kstp="1" mode="normal"


 OUTPUT CONTROL FOR STRESS PERIOD 329 IS REPEATED USING SETTINGS FROM A PREVIOUS STRESS PERIOD.


 STRESS PERIOD 329 IS TRANSIENT


 REUSING WELS FROM LAST STRESS PERIOD

 REUSING DRNS FROM LAST STRESS PERIOD

 REUSING RCHS FROM LAST STRESS PERIOD


  VOLUME BUDGET FOR ENTIRE MODEL AT END OF TIME STEP    1, STRESS PERIOD 329
  ---------------------------------------------------------------------------------------------------

     CUMULATIVE VOLUME      L**3       RATES FOR THIS TIME STEP      L**3/T          PACKAGE NAME    
     ------------------                 ------------------------                     ----------------

           IN:                                      IN:
           ---                                      ---
              STO-SS =           0.0000                STO-SS =           0.0000     STORAGE         
              STO-SY =   817541246.8733                STO-SY =     1656731.8234     STORAGE         
                 WEL =           0.0000                   WEL =           0.0000     WEL_0           
                 DRN =           0.0000                   DRN =           0.0000     DRN_0           
                 RCH =   381383279.2620                   RCH =     1028574.3280     RCH_0           

            TOTAL IN =  1198924526.1353              TOTAL IN =     2685306.1514

          OUT:                                     OUT:
          ----                                     ----
              STO-SS =           0.0000                STO-SS =           0.0000     STORAGE         
              STO-SY =    82837931.4466                STO-SY =       58037.8561     STORAGE         
                 WEL =   246150267.2022                   WEL =      407225.1584     WEL_0           
                 DRN =   869936325.5977                   DRN =     2220043.1369     DRN_0           
                 RCH =           0.0000                   RCH =           0.0000     RCH_0           

           TOTAL OUT =  1198924524.2464             TOTAL OUT =     2685306.1514

            IN - OUT =           1.8889              IN - OUT =       2.9393E-06

 PERCENT DISCREPANCY =           0.00     PERCENT DISCREPANCY =           0.00




         TIME SUMMARY AT END OF TIME STEP    1 IN STRESS PERIOD  329
                          TIME STEP LENGTH =    1.00000    
                        STRESS PERIOD TIME =    1.00000    
                     TOTAL SIMULATION TIME =    329.000    

end timestep


start timestep kper="330" kstp="1" mode="normal"


 OUTPUT CONTROL FOR STRESS PERIOD 330 IS REPEATED USING SETTINGS FROM A PREVIOUS STRESS PERIOD.


 STRESS PERIOD 330 IS TRANSIENT


 REUSING WELS FROM LAST STRESS PERIOD

 REUSING DRNS FROM LAST STRESS PERIOD

 REUSING RCHS FROM LAST STRESS PERIOD


  VOLUME BUDGET FOR ENTIRE MODEL AT END OF TIME STEP    1, STRESS PERIOD 330
  ---------------------------------------------------------------------------------------------------

     CUMULATIVE VOLUME      L**3       RATES FOR THIS TIME STEP      L**3/T          PACKAGE NAME    
     ------------------                 ------------------------                     ----------------

           IN:                                      IN:
           ---                                      ---
              STO-SS =           0.0000                STO-SS =           0.0000     STORAGE         
              STO-SY =   819051566.6191                STO-SY =     1510319.7458     STORAGE         
                 WEL =           0.0000                   WEL =           0.0000     WEL_0           
                 DRN =           0.0000                   DRN =           0.0000     DRN_0           
                 RCH =   382394584.8843                   RCH =     1011305.6223     RCH_0           

            TOTAL IN =  1201446151.5034              TOTAL IN =     2521625.3681

          OUT:                                     OUT:
          ----                                     ----
              STO-SS =           0.0000                STO-SS =           0.0000     STORAGE         
              STO-SY =    82890594.2044                STO-SY =       52662.7579     STORAGE         
                 WEL =   246369716.2011                   WEL =      219448.9989     WEL_0           
                 DRN =   872185839.2090                   DRN =     2249513.6113     DRN_0           
                 RCH =           0.0000                   RCH =           0.0000     RCH_0           

           TOTAL OUT =  1201446149.6145             TOTAL OUT =     2521625.3681

            IN - OUT =           1.8889              IN - OUT =      -2.0768E-07

 PERCENT DISCREPANCY =           0.00     PERCENT DISCREPANCY =          -0.00




         TIME SUMMARY AT END OF TIME STEP    1 IN STRESS PERIOD  330
                          TIME STEP LENGTH =    1.00000    
                        STRESS PERIOD TIME =    1.00000    
                     TOTAL SIMULATION TIME =    330.000    

end timestep


start timestep kper="331" kstp="1" mode="normal"


 OUTPUT CONTROL FOR STRESS PERIOD 331 IS REPEATED USING SETTINGS FROM A PREVIOUS STRESS PERIOD.


 STRESS PERIOD 331 IS TRANSIENT


 REUSING WELS FROM LAST STRESS PERIOD

 REUSING DRNS FROM LAST STRESS PERIOD

 REUSING RCHS FROM LAST STRESS PERIOD


  VOLUME BUDGET FOR ENTIRE MODEL AT END OF TIME STEP    1, STRESS PERIOD 331
  ---------------------------------------------------------------------------------------------------

     CUMULATIVE VOLUME      L**3       RATES FOR THIS TIME STEP      L**3/T          PACKAGE NAME    
     ------------------                 ------------------------                     ----------------

           IN:                                      IN:
           ---                                      ---
              STO-SS =           0.0000                STO-SS =           0.0000     STORAGE         
              STO-SY =   820866908.3231                STO-SY =     1815341.7039     STORAGE         
                 WEL =           0.0000                   WEL =           0.0000     WEL_0           
                 DRN =           0.0000                   DRN =           0.0000     DRN_0           
                 RCH =   383439873.3188                   RCH =     1045288.4345     RCH_0           

            TOTAL IN =  1204306781.6418              TOTAL IN =     2860630.1384

          OUT:                                     OUT:
          ----                                     ----
              STO-SS =           0.0000                STO-SS =           0.0000     STORAGE         
              STO-SY =    82908198.0729                STO-SY =       17603.8685     STORAGE         
                 WEL =   247056745.9686                   WEL =      687029.7674     WEL_0           
                 DRN =   874341835.7115                   DRN =     2155996.5025     DRN_0           
                 RCH =           0.0000                   RCH =           0.0000     RCH_0           

           TOTAL OUT =  1204306779.7529             TOTAL OUT =     2860630.1384

            IN - OUT =           1.8889              IN - OUT =       2.1500E-06

 PERCENT DISCREPANCY =           0.00     PERCENT DISCREPANCY =           0.00




         TIME SUMMARY AT END OF TIME STEP    1 IN STRESS PERIOD  331
                          TIME STEP LENGTH =    1.00000    
                        STRESS PERIOD TIME =    1.00000    
                     TOTAL SIMULATION TIME =    331.000    

end timestep


start timestep kper="332" kstp="1" mode="normal"


 OUTPUT CONTROL FOR STRESS PERIOD 332 IS REPEATED USING SETTINGS FROM A PREVIOUS STRESS PERIOD.


 STRESS PERIOD 332 IS TRANSIENT


 REUSING WELS FROM LAST STRESS PERIOD

 REUSING DRNS FROM LAST STRESS PERIOD

 REUSING RCHS FROM LAST STRESS PERIOD


  VOLUME BUDGET FOR ENTIRE MODEL AT END OF TIME STEP    1, STRESS PERIOD 332
  ---------------------------------------------------------------------------------------------------

     CUMULATIVE VOLUME      L**3       RATES FOR THIS TIME STEP      L**3/T          PACKAGE NAME    
     ------------------                 ------------------------                     ----------------

           IN:                                      IN:
           ---                                      ---
              STO-SS =           0.0000                STO-SS =           0.0000     STORAGE         
              STO-SY =   822377702.4245                STO-SY =     1510794.1014     STORAGE         
                 WEL =           0.0000                   WEL =           0.0000     WEL_0           
                 DRN =           0.0000                   DRN =           0.0000     DRN_0           
                 RCH =   384484057.2876                   RCH =     1044183.9689     RCH_0           

            TOTAL IN =  1206861759.7122              TOTAL IN =     2554978.0703

          OUT:                                     OUT:
          ----                                     ----
              STO-SS =           0.0000                STO-SS =           0.0000     STORAGE         
              STO-SY =    82958860.6980                STO-SY =       50662.6251     STORAGE         
                 WEL =   247295852.6320                   WEL =      239106.6634     WEL_0           
                 DRN =   876607044.4933                   DRN =     2265208.7818     DRN_0           
                 RCH =           0.0000                   RCH =           0.0000     RCH_0           

           TOTAL OUT =  1206861757.8232             TOTAL OUT =     2554978.0703

            IN - OUT =           1.8889              IN - OUT =      -5.9791E-07

 PERCENT DISCREPANCY =           0.00     PERCENT DISCREPANCY =          -0.00




         TIME SUMMARY AT END OF TIME STEP    1 IN STRESS PERIOD  332
                          TIME STEP LENGTH =    1.00000    
                        STRESS PERIOD TIME =    1.00000    
                     TOTAL SIMULATION TIME =    332.000    

end timestep


start timestep kper="333" kstp="1" mode="normal"


 OUTPUT CONTROL FOR STRESS PERIOD 333 IS REPEATED USING SETTINGS FROM A PREVIOUS STRESS PERIOD.


 STRESS PERIOD 333 IS TRANSIENT


 REUSING WELS FROM LAST STRESS PERIOD

 REUSING DRNS FROM LAST STRESS PERIOD

 REUSING RCHS FROM LAST STRESS PERIOD


  VOLUME BUDGET FOR ENTIRE MODEL AT END OF TIME STEP    1, STRESS PERIOD 333
  ---------------------------------------------------------------------------------------------------

     CUMULATIVE VOLUME      L**3       RATES FOR THIS TIME STEP      L**3/T          PACKAGE NAME    
     ------------------                 ------------------------                     ----------------

           IN:                                      IN:
           ---                                      ---
              STO-SS =           0.0000                STO-SS =           0.0000     STORAGE         
              STO-SY =   824132757.7715                STO-SY =     1755055.3470     STORAGE         
                 WEL =           0.0000                   WEL =           0.0000     WEL_0           
                 DRN =           0.0000                   DRN =           0.0000     DRN_0           
                 RCH =   385517319.8488                   RCH =     1033262.5612     RCH_0           

            TOTAL IN =  1209650077.6204              TOTAL IN =     2788317.9082

          OUT:                                     OUT:
          ----                                     ----
              STO-SS =           0.0000                STO-SS =           0.0000     STORAGE         
              STO-SY =    82979693.0920                STO-SY =       20832.3941     STORAGE         
                 WEL =   247900059.6208                   WEL =      604206.9888     WEL_0           
                 DRN =   878770323.0186                   DRN =     2163278.5253     DRN_0           
                 RCH =           0.0000                   RCH =           0.0000     RCH_0           

           TOTAL OUT =  1209650075.7314             TOTAL OUT =     2788317.9082

            IN - OUT =           1.8889              IN - OUT =       1.2983E-06

 PERCENT DISCREPANCY =           0.00     PERCENT DISCREPANCY =           0.00




         TIME SUMMARY AT END OF TIME STEP    1 IN STRESS PERIOD  333
                          TIME STEP LENGTH =    1.00000    
                        STRESS PERIOD TIME =    1.00000    
                     TOTAL SIMULATION TIME =    333.000    

end timestep


start timestep kper="334" kstp="1" mode="normal"


 OUTPUT CONTROL FOR STRESS PERIOD 334 IS REPEATED USING SETTINGS FROM A PREVIOUS STRESS PERIOD.


 STRESS PERIOD 334 IS TRANSIENT


 REUSING WELS FROM LAST STRESS PERIOD

 REUSING DRNS FROM LAST STRESS PERIOD

 REUSING RCHS FROM LAST STRESS PERIOD


  VOLUME BUDGET FOR ENTIRE MODEL AT END OF TIME STEP    1, STRESS PERIOD 334
  ---------------------------------------------------------------------------------------------------

     CUMULATIVE VOLUME      L**3       RATES FOR THIS TIME STEP      L**3/T          PACKAGE NAME    
     ------------------                 ------------------------                     ----------------

           IN:                                      IN:
           ---                                      ---
              STO-SS =           0.0000                STO-SS =           0.0000     STORAGE         
              STO-SY =   825613185.2002                STO-SY =     1480427.4287     STORAGE         
                 WEL =           0.0000                   WEL =           0.0000     WEL_0           
                 DRN =           0.0000                   DRN =           0.0000     DRN_0           
                 RCH =   386533788.1338                   RCH =     1016468.2849     RCH_0           

            TOTAL IN =  1212146973.3339              TOTAL IN =     2496895.7136

          OUT:                                     OUT:
          ----                                     ----
              STO-SS =           0.0000                STO-SS =           0.0000     STORAGE         
              STO-SY =    83042750.2455                STO-SY =       63057.1534     STORAGE         
                 WEL =   248077026.4591                   WEL =      176966.8382     WEL_0           
                 DRN =   881027194.7405                   DRN =     2256871.7219     DRN_0           
                 RCH =           0.0000                   RCH =           0.0000     RCH_0           

           TOTAL OUT =  1212146971.4450             TOTAL OUT =     2496895.7136

            IN - OUT =           1.8889              IN - OUT =       1.9921E-06

 PERCENT DISCREPANCY =           0.00     PERCENT DISCREPANCY =           0.00




         TIME SUMMARY AT END OF TIME STEP    1 IN STRESS PERIOD  334
                          TIME STEP LENGTH =    1.00000    
                        STRESS PERIOD TIME =    1.00000    
                     TOTAL SIMULATION TIME =    334.000    

end timestep


start timestep kper="335" kstp="1" mode="normal"


 OUTPUT CONTROL FOR STRESS PERIOD 335 IS REPEATED USING SETTINGS FROM A PREVIOUS STRESS PERIOD.


 STRESS PERIOD 335 IS TRANSIENT


 REUSING WELS FROM LAST STRESS PERIOD

 REUSING DRNS FROM LAST STRESS PERIOD

 REUSING RCHS FROM LAST STRESS PERIOD


  VOLUME BUDGET FOR ENTIRE MODEL AT END OF TIME STEP    1, STRESS PERIOD 335
  ---------------------------------------------------------------------------------------------------

     CUMULATIVE VOLUME      L**3       RATES FOR THIS TIME STEP      L**3/T          PACKAGE NAME    
     ------------------                 ------------------------                     ----------------

           IN:                                      IN:
           ---                                      ---
              STO-SS =           0.0000                STO-SS =           0.0000     STORAGE         
              STO-SY =   827291907.0213                STO-SY =     1678721.8211     STORAGE         
                 WEL =           0.0000                   WEL =           0.0000     WEL_0           
                 DRN =           0.0000                   DRN =           0.0000     DRN_0           
                 RCH =   387527649.5950                   RCH =      993861.4613     RCH_0           

            TOTAL IN =  1214819556.6163              TOTAL IN =     2672583.2823

          OUT:                                     OUT:
          ----                                     ----
              STO-SS =           0.0000                STO-SS =           0.0000     STORAGE         
              STO-SY =    83079341.0680                STO-SY =       36590.8225     STORAGE         
                 WEL =   248537600.9948                   WEL =      460574.5358     WEL_0           
                 DRN =   883202612.6645                   DRN =     2175417.9240     DRN_0           
                 RCH =           0.0000                   RCH =           0.0000     RCH_0           

           TOTAL OUT =  1214819554.7273             TOTAL OUT =     2672583.2823

            IN - OUT =           1.8889              IN - OUT =       2.5006E-06

 PERCENT DISCREPANCY =           0.00     PERCENT DISCREPANCY =           0.00




         TIME SUMMARY AT END OF TIME STEP    1 IN STRESS PERIOD  335
                          TIME STEP LENGTH =    1.00000    
                        STRESS PERIOD TIME =    1.00000    
                     TOTAL SIMULATION TIME =    335.000    

end timestep


start timestep kper="336" kstp="1" mode="normal"


 OUTPUT CONTROL FOR STRESS PERIOD 336 IS REPEATED USING SETTINGS FROM A PREVIOUS STRESS PERIOD.


 STRESS PERIOD 336 IS TRANSIENT


 REUSING WELS FROM LAST STRESS PERIOD

 REUSING DRNS FROM LAST STRESS PERIOD

 REUSING RCHS FROM LAST STRESS PERIOD


  VOLUME BUDGET FOR ENTIRE MODEL AT END OF TIME STEP    1, STRESS PERIOD 336
  ---------------------------------------------------------------------------------------------------

     CUMULATIVE VOLUME      L**3       RATES FOR THIS TIME STEP      L**3/T          PACKAGE NAME    
     ------------------                 ------------------------                     ----------------

           IN:                                      IN:
           ---                                      ---
              STO-SS =           0.0000                STO-SS =           0.0000     STORAGE         
              STO-SY =   828752381.1717                STO-SY =     1460474.1505     STORAGE         
                 WEL =           0.0000                   WEL =           0.0000     WEL_0           
                 DRN =           0.0000                   DRN =           0.0000     DRN_0           
                 RCH =   388506154.0612                   RCH =      978504.4662     RCH_0           

            TOTAL IN =  1217258535.2329              TOTAL IN =     2438978.6167

          OUT:                                     OUT:
          ----                                     ----
              STO-SS =           0.0000                STO-SS =           0.0000     STORAGE         
              STO-SY =    83140786.2495                STO-SY =       61445.1814     STORAGE         
                 WEL =   248679799.9605                   WEL =      142198.9657     WEL_0           
                 DRN =   885437947.1340                   DRN =     2235334.4695     DRN_0           
                 RCH =           0.0000                   RCH =           0.0000     RCH_0           

           TOTAL OUT =  1217258533.3440             TOTAL OUT =     2438978.6167

            IN - OUT =           1.8889              IN - OUT =       3.5018E-07

 PERCENT DISCREPANCY =           0.00     PERCENT DISCREPANCY =           0.00




         TIME SUMMARY AT END OF TIME STEP    1 IN STRESS PERIOD  336
                          TIME STEP LENGTH =    1.00000    
                        STRESS PERIOD TIME =    1.00000    
                     TOTAL SIMULATION TIME =    336.000    

end timestep


start timestep kper="337" kstp="1" mode="normal"


 OUTPUT CONTROL FOR STRESS PERIOD 337 IS REPEATED USING SETTINGS FROM A PREVIOUS STRESS PERIOD.


 STRESS PERIOD 337 IS TRANSIENT


 REUSING WELS FROM LAST STRESS PERIOD

 REUSING DRNS FROM LAST STRESS PERIOD

 REUSING RCHS FROM LAST STRESS PERIOD


  VOLUME BUDGET FOR ENTIRE MODEL AT END OF TIME STEP    1, STRESS PERIOD 337
  ---------------------------------------------------------------------------------------------------

     CUMULATIVE VOLUME      L**3       RATES FOR THIS TIME STEP      L**3/T          PACKAGE NAME    
     ------------------                 ------------------------                     ----------------

           IN:                                      IN:
           ---                                      ---
              STO-SS =           0.0000                STO-SS =           0.0000     STORAGE         
              STO-SY =   830350453.3616                STO-SY =     1598072.1899     STORAGE         
                 WEL =           0.0000                   WEL =           0.0000     WEL_0           
                 DRN =           0.0000                   DRN =           0.0000     DRN_0           
                 RCH =   389486953.6724                   RCH =      980799.6111     RCH_0           

            TOTAL IN =  1219837407.0340              TOTAL IN =     2578871.8010

          OUT:                                     OUT:
          ----                                     ----
              STO-SS =           0.0000                STO-SS =           0.0000     STORAGE         
              STO-SY =    83162633.3575                STO-SY =       21847.1080     STORAGE         
                 WEL =   249050222.4792                   WEL =      370422.5187     WEL_0           
                 DRN =   887624549.3083                   DRN =     2186602.1743     DRN_0           
                 RCH =           0.0000                   RCH =           0.0000     RCH_0           

           TOTAL OUT =  1219837405.1451             TOTAL OUT =     2578871.8010

            IN - OUT =           1.8889              IN - OUT =      -5.4482E-08

 PERCENT DISCREPANCY =           0.00     PERCENT DISCREPANCY =          -0.00




         TIME SUMMARY AT END OF TIME STEP    1 IN STRESS PERIOD  337
                          TIME STEP LENGTH =    1.00000    
                        STRESS PERIOD TIME =    1.00000    
                     TOTAL SIMULATION TIME =    337.000    

end timestep


start timestep kper="338" kstp="1" mode="normal"


 OUTPUT CONTROL FOR STRESS PERIOD 338 IS REPEATED USING SETTINGS FROM A PREVIOUS STRESS PERIOD.


 STRESS PERIOD 338 IS TRANSIENT


 REUSING WELS FROM LAST STRESS PERIOD

 REUSING DRNS FROM LAST STRESS PERIOD

 REUSING RCHS FROM LAST STRESS PERIOD


  VOLUME BUDGET FOR ENTIRE MODEL AT END OF TIME STEP    1, STRESS PERIOD 338
  ---------------------------------------------------------------------------------------------------

     CUMULATIVE VOLUME      L**3       RATES FOR THIS TIME STEP      L**3/T          PACKAGE NAME    
     ------------------                 ------------------------                     ----------------

           IN:                                      IN:
           ---                                      ---
              STO-SS =           0.0000                STO-SS =           0.0000     STORAGE         
              STO-SY =   832033822.3230                STO-SY =     1683368.9614     STORAGE         
                 WEL =           0.0000                   WEL =           0.0000     WEL_0           
                 DRN =           0.0000                   DRN =           0.0000     DRN_0           
                 RCH =   390505532.5999                   RCH =     1018578.9275     RCH_0           

            TOTAL IN =  1222539354.9229              TOTAL IN =     2701947.8890

          OUT:                                     OUT:
          ----                                     ----
              STO-SS =           0.0000                STO-SS =           0.0000     STORAGE         
              STO-SY =    83210500.7802                STO-SY =       47867.4227     STORAGE         
                 WEL =   249491667.8972                   WEL =      441445.4180     WEL_0           
                 DRN =   889837184.3566                   DRN =     2212635.0483     DRN_0           
                 RCH =           0.0000                   RCH =           0.0000     RCH_0           

           TOTAL OUT =  1222539353.0340             TOTAL OUT =     2701947.8890

            IN - OUT =           1.8889              IN - OUT =       2.6762E-06

 PERCENT DISCREPANCY =           0.00     PERCENT DISCREPANCY =           0.00




         TIME SUMMARY AT END OF TIME STEP    1 IN STRESS PERIOD  338
                          TIME STEP LENGTH =    1.00000    
                        STRESS PERIOD TIME =    1.00000    
                     TOTAL SIMULATION TIME =    338.000    

end timestep


start timestep kper="339" kstp="1" mode="normal"


 OUTPUT CONTROL FOR STRESS PERIOD 339 IS REPEATED USING SETTINGS FROM A PREVIOUS STRESS PERIOD.


 STRESS PERIOD 339 IS TRANSIENT


 REUSING WELS FROM LAST STRESS PERIOD

 REUSING DRNS FROM LAST STRESS PERIOD

 REUSING RCHS FROM LAST STRESS PERIOD


  VOLUME BUDGET FOR ENTIRE MODEL AT END OF TIME STEP    1, STRESS PERIOD 339
  ---------------------------------------------------------------------------------------------------

     CUMULATIVE VOLUME      L**3       RATES FOR THIS TIME STEP      L**3/T          PACKAGE NAME    
     ------------------                 ------------------------                     ----------------

           IN:                                      IN:
           ---                                      ---
              STO-SS =           0.0000                STO-SS =           0.0000     STORAGE         
              STO-SY =   833634402.4292                STO-SY =     1600580.1062     STORAGE         
                 WEL =           0.0000                   WEL =           0.0000     WEL_0           
                 DRN =           0.0000                   DRN =           0.0000     DRN_0           
                 RCH =   391478663.8110                   RCH =      973131.2111     RCH_0           

            TOTAL IN =  1225113066.2403              TOTAL IN =     2573711.3173

          OUT:                                     OUT:
          ----                                     ----
              STO-SS =           0.0000                STO-SS =           0.0000     STORAGE         
              STO-SY =    83225430.1640                STO-SY =       14929.3838     STORAGE         
                 WEL =   249914830.6915                   WEL =      423162.7943     WEL_0           
                 DRN =   891972803.4959                   DRN =     2135619.1392     DRN_0           
                 RCH =           0.0000                   RCH =           0.0000     RCH_0           

           TOTAL OUT =  1225113064.3513             TOTAL OUT =     2573711.3173

            IN - OUT =           1.8889              IN - OUT =       1.6009E-06

 PERCENT DISCREPANCY =           0.00     PERCENT DISCREPANCY =           0.00




         TIME SUMMARY AT END OF TIME STEP    1 IN STRESS PERIOD  339
                          TIME STEP LENGTH =    1.00000    
                        STRESS PERIOD TIME =    1.00000    
                     TOTAL SIMULATION TIME =    339.000    

end timestep


start timestep kper="340" kstp="1" mode="normal"


 OUTPUT CONTROL FOR STRESS PERIOD 340 IS REPEATED USING SETTINGS FROM A PREVIOUS STRESS PERIOD.


 STRESS PERIOD 340 IS TRANSIENT


 REUSING WELS FROM LAST STRESS PERIOD

 REUSING DRNS FROM LAST STRESS PERIOD

 REUSING RCHS FROM LAST STRESS PERIOD


  VOLUME BUDGET FOR ENTIRE MODEL AT END OF TIME STEP    1, STRESS PERIOD 340
  ---------------------------------------------------------------------------------------------------

     CUMULATIVE VOLUME      L**3       RATES FOR THIS TIME STEP      L**3/T          PACKAGE NAME    
     ------------------                 ------------------------                     ----------------

           IN:                                      IN:
           ---                                      ---
              STO-SS =           0.0000                STO-SS =           0.0000     STORAGE         
              STO-SY =   835331806.2375                STO-SY =     1697403.8083     STORAGE         
                 WEL =           0.0000                   WEL =           0.0000     WEL_0           
                 DRN =           0.0000                   DRN =           0.0000     DRN_0           
                 RCH =   392548342.9105                   RCH =     1069679.0994     RCH_0           

            TOTAL IN =  1227880149.1479              TOTAL IN =     2767082.9077

          OUT:                                     OUT:
          ----                                     ----
              STO-SS =           0.0000                STO-SS =           0.0000     STORAGE         
              STO-SY =    83268311.2588                STO-SY =       42881.0948     STORAGE         
                 WEL =   250430873.0426                   WEL =      516042.3511     WEL_0           
                 DRN =   894180962.9576                   DRN =     2208159.4618     DRN_0           
                 RCH =           0.0000                   RCH =           0.0000     RCH_0           

           TOTAL OUT =  1227880147.2590             TOTAL OUT =     2767082.9077

            IN - OUT =           1.8889              IN - OUT =      -5.4855E-07

 PERCENT DISCREPANCY =           0.00     PERCENT DISCREPANCY =          -0.00




         TIME SUMMARY AT END OF TIME STEP    1 IN STRESS PERIOD  340
                          TIME STEP LENGTH =    1.00000    
                        STRESS PERIOD TIME =    1.00000    
                     TOTAL SIMULATION TIME =    340.000    

end timestep


start timestep kper="341" kstp="1" mode="normal"


 OUTPUT CONTROL FOR STRESS PERIOD 341 IS REPEATED USING SETTINGS FROM A PREVIOUS STRESS PERIOD.


 STRESS PERIOD 341 IS TRANSIENT


 REUSING WELS FROM LAST STRESS PERIOD

 REUSING DRNS FROM LAST STRESS PERIOD

 REUSING RCHS FROM LAST STRESS PERIOD


  VOLUME BUDGET FOR ENTIRE MODEL AT END OF TIME STEP    1, STRESS PERIOD 341
  ---------------------------------------------------------------------------------------------------

     CUMULATIVE VOLUME      L**3       RATES FOR THIS TIME STEP      L**3/T          PACKAGE NAME    
     ------------------                 ------------------------                     ----------------

           IN:                                      IN:
           ---                                      ---
              STO-SS =           0.0000                STO-SS =           0.0000     STORAGE         
              STO-SY =   836966571.9267                STO-SY =     1634765.6892     STORAGE         
                 WEL =           0.0000                   WEL =           0.0000     WEL_0           
                 DRN =           0.0000                   DRN =           0.0000     DRN_0           
                 RCH =   393532046.6497                   RCH =      983703.7392     RCH_0           

            TOTAL IN =  1230498618.5764              TOTAL IN =     2618469.4284

          OUT:                                     OUT:
          ----                                     ----
              STO-SS =           0.0000                STO-SS =           0.0000     STORAGE         
              STO-SY =    83290006.1177                STO-SY =       21694.8589     STORAGE         
                 WEL =   250870460.2959                   WEL =      439587.2533     WEL_0           
                 DRN =   896338150.1895                   DRN =     2157187.2318     DRN_0           
                 RCH =           0.0000                   RCH =           0.0000     RCH_0           

           TOTAL OUT =  1230498616.6031             TOTAL OUT =     2618469.3440

            IN - OUT =           1.9733              IN - OUT =       8.4389E-02

 PERCENT DISCREPANCY =           0.00     PERCENT DISCREPANCY =           0.00




         TIME SUMMARY AT END OF TIME STEP    1 IN STRESS PERIOD  341
                          TIME STEP LENGTH =    1.00000    
                        STRESS PERIOD TIME =    1.00000    
                     TOTAL SIMULATION TIME =    341.000    

end timestep


start timestep kper="342" kstp="1" mode="normal"


 OUTPUT CONTROL FOR STRESS PERIOD 342 IS REPEATED USING SETTINGS FROM A PREVIOUS STRESS PERIOD.


 STRESS PERIOD 342 IS TRANSIENT


 REUSING WELS FROM LAST STRESS PERIOD

 REUSING DRNS FROM LAST STRESS PERIOD

 REUSING RCHS FROM LAST STRESS PERIOD


  VOLUME BUDGET FOR ENTIRE MODEL AT END OF TIME STEP    1, STRESS PERIOD 342
  ---------------------------------------------------------------------------------------------------

     CUMULATIVE VOLUME      L**3       RATES FOR THIS TIME STEP      L**3/T          PACKAGE NAME    
     ------------------                 ------------------------                     ----------------

           IN:                                      IN:
           ---                                      ---
              STO-SS =           0.0000                STO-SS =           0.0000     STORAGE         
              STO-SY =   838484948.6421                STO-SY =     1518376.7154     STORAGE         
                 WEL =           0.0000                   WEL =           0.0000     WEL_0           
                 DRN =           0.0000                   DRN =           0.0000     DRN_0           
                 RCH =   394523344.5864                   RCH =      991297.9367     RCH_0           

            TOTAL IN =  1233008293.2284              TOTAL IN =     2509674.6521

          OUT:                                     OUT:
          ----                                     ----
              STO-SS =           0.0000                STO-SS =           0.0000     STORAGE         
              STO-SY =    83329433.9756                STO-SY =       39427.8579     STORAGE         
                 WEL =   251128117.6713                   WEL =      257657.3754     WEL_0           
                 DRN =   898550739.6082                   DRN =     2212589.4187     DRN_0           
                 RCH =           0.0000                   RCH =           0.0000     RCH_0           

           TOTAL OUT =  1233008291.2551             TOTAL OUT =     2509674.6521

            IN - OUT =           1.9733              IN - OUT =       2.6720E-06

 PERCENT DISCREPANCY =           0.00     PERCENT DISCREPANCY =           0.00




         TIME SUMMARY AT END OF TIME STEP    1 IN STRESS PERIOD  342
                          TIME STEP LENGTH =    1.00000    
                        STRESS PERIOD TIME =    1.00000    
                     TOTAL SIMULATION TIME =    342.000    

end timestep


start timestep kper="343" kstp="1" mode="normal"


 OUTPUT CONTROL FOR STRESS PERIOD 343 IS REPEATED USING SETTINGS FROM A PREVIOUS STRESS PERIOD.


 STRESS PERIOD 343 IS TRANSIENT


 REUSING WELS FROM LAST STRESS PERIOD

 REUSING DRNS FROM LAST STRESS PERIOD

 REUSING RCHS FROM LAST STRESS PERIOD


  VOLUME BUDGET FOR ENTIRE MODEL AT END OF TIME STEP    1, STRESS PERIOD 343
  ---------------------------------------------------------------------------------------------------

     CUMULATIVE VOLUME      L**3       RATES FOR THIS TIME STEP      L**3/T          PACKAGE NAME    
     ------------------                 ------------------------                     ----------------

           IN:                                      IN:
           ---                                      ---
              STO-SS =           0.0000                STO-SS =           0.0000     STORAGE         
              STO-SY =   840210797.5675                STO-SY =     1725848.9254     STORAGE         
                 WEL =           0.0000                   WEL =           0.0000     WEL_0           
                 DRN =           0.0000                   DRN =           0.0000     DRN_0           
                 RCH =   395510380.7064                   RCH =      987036.1200     RCH_0           

            TOTAL IN =  1235721178.2739              TOTAL IN =     2712885.0454

          OUT:                                     OUT:
          ----                                     ----
              STO-SS =           0.0000                STO-SS =           0.0000     STORAGE         
              STO-SY =    83351363.4732                STO-SY =       21929.4976     STORAGE         
                 WEL =   251704460.5369                   WEL =      576342.8656     WEL_0           
                 DRN =   900665352.2904                   DRN =     2114612.6822     DRN_0           
                 RCH =           0.0000                   RCH =           0.0000     RCH_0           

           TOTAL OUT =  1235721176.3005             TOTAL OUT =     2712885.0454

            IN - OUT =           1.9733              IN - OUT =       2.5923E-06

 PERCENT DISCREPANCY =           0.00     PERCENT DISCREPANCY =           0.00




         TIME SUMMARY AT END OF TIME STEP    1 IN STRESS PERIOD  343
                          TIME STEP LENGTH =    1.00000    
                        STRESS PERIOD TIME =    1.00000    
                     TOTAL SIMULATION TIME =    343.000    

end timestep


start timestep kper="344" kstp="1" mode="normal"


 OUTPUT CONTROL FOR STRESS PERIOD 344 IS REPEATED USING SETTINGS FROM A PREVIOUS STRESS PERIOD.


 STRESS PERIOD 344 IS TRANSIENT


 REUSING WELS FROM LAST STRESS PERIOD

 REUSING DRNS FROM LAST STRESS PERIOD

 REUSING RCHS FROM LAST STRESS PERIOD


  VOLUME BUDGET FOR ENTIRE MODEL AT END OF TIME STEP    1, STRESS PERIOD 344
  ---------------------------------------------------------------------------------------------------

     CUMULATIVE VOLUME      L**3       RATES FOR THIS TIME STEP      L**3/T          PACKAGE NAME    
     ------------------                 ------------------------                     ----------------

           IN:                                      IN:
           ---                                      ---
              STO-SS =           0.0000                STO-SS =           0.0000     STORAGE         
              STO-SY =   841808053.7639                STO-SY =     1597256.1965     STORAGE         
                 WEL =           0.0000                   WEL =           0.0000     WEL_0           
                 DRN =           0.0000                   DRN =           0.0000     DRN_0           
                 RCH =   396524513.6350                   RCH =     1014132.9286     RCH_0           

            TOTAL IN =  1238332567.3989              TOTAL IN =     2611389.1251

          OUT:                                     OUT:
          ----                                     ----
              STO-SS =           0.0000                STO-SS =           0.0000     STORAGE         
              STO-SY =    83390330.4160                STO-SY =       38966.9428     STORAGE         
                 WEL =   252079118.4793                   WEL =      374657.9423     WEL_0           
                 DRN =   902863116.5304                   DRN =     2197764.2400     DRN_0           
                 RCH =           0.0000                   RCH =           0.0000     RCH_0           

           TOTAL OUT =  1238332565.4256             TOTAL OUT =     2611389.1251

            IN - OUT =           1.9733              IN - OUT =      -1.0091E-06

 PERCENT DISCREPANCY =           0.00     PERCENT DISCREPANCY =          -0.00




         TIME SUMMARY AT END OF TIME STEP    1 IN STRESS PERIOD  344
                          TIME STEP LENGTH =    1.00000    
                        STRESS PERIOD TIME =    1.00000    
                     TOTAL SIMULATION TIME =    344.000    

end timestep


start timestep kper="345" kstp="1" mode="normal"


 OUTPUT CONTROL FOR STRESS PERIOD 345 IS REPEATED USING SETTINGS FROM A PREVIOUS STRESS PERIOD.


 STRESS PERIOD 345 IS TRANSIENT


 REUSING WELS FROM LAST STRESS PERIOD

 REUSING DRNS FROM LAST STRESS PERIOD

 REUSING RCHS FROM LAST STRESS PERIOD


  VOLUME BUDGET FOR ENTIRE MODEL AT END OF TIME STEP    1, STRESS PERIOD 345
  ---------------------------------------------------------------------------------------------------

     CUMULATIVE VOLUME      L**3       RATES FOR THIS TIME STEP      L**3/T          PACKAGE NAME    
     ------------------                 ------------------------                     ----------------

           IN:                                      IN:
           ---                                      ---
              STO-SS =           0.0000                STO-SS =           0.0000     STORAGE         
              STO-SY =   843389895.9895                STO-SY =     1581842.2255     STORAGE         
                 WEL =           0.0000                   WEL =           0.0000     WEL_0           
                 DRN =           0.0000                   DRN =           0.0000     DRN_0           
                 RCH =   397461847.2121                   RCH =      937333.5771     RCH_0           

            TOTAL IN =  1240851743.2016              TOTAL IN =     2519175.8026

          OUT:                                     OUT:
          ----                                     ----
              STO-SS =           0.0000                STO-SS =           0.0000     STORAGE         
              STO-SY =    83409467.2771                STO-SY =       19136.8612     STORAGE         
                 WEL =   252457198.0472                   WEL =      378079.5680     WEL_0           
                 DRN =   904985075.8767                   DRN =     2121959.3463     DRN_0           
                 RCH =           0.0000                   RCH =           0.0000     RCH_0           

           TOTAL OUT =  1240851741.2010             TOTAL OUT =     2519175.7754

            IN - OUT =           2.0005              IN - OUT =       2.7219E-02

 PERCENT DISCREPANCY =           0.00     PERCENT DISCREPANCY =           0.00




         TIME SUMMARY AT END OF TIME STEP    1 IN STRESS PERIOD  345
                          TIME STEP LENGTH =    1.00000    
                        STRESS PERIOD TIME =    1.00000    
                     TOTAL SIMULATION TIME =    345.000    

end timestep


start timestep kper="346" kstp="1" mode="normal"


 OUTPUT CONTROL FOR STRESS PERIOD 346 IS REPEATED USING SETTINGS FROM A PREVIOUS STRESS PERIOD.


 STRESS PERIOD 346 IS TRANSIENT


 REUSING WELS FROM LAST STRESS PERIOD

 REUSING DRNS FROM LAST STRESS PERIOD

 REUSING RCHS FROM LAST STRESS PERIOD


  VOLUME BUDGET FOR ENTIRE MODEL AT END OF TIME STEP    1, STRESS PERIOD 346
  ---------------------------------------------------------------------------------------------------

     CUMULATIVE VOLUME      L**3       RATES FOR THIS TIME STEP      L**3/T          PACKAGE NAME    
     ------------------                 ------------------------                     ----------------

           IN:                                      IN:
           ---                                      ---
              STO-SS =           0.0000                STO-SS =           0.0000     STORAGE         
              STO-SY =   844827894.4013                STO-SY =     1437998.4119     STORAGE         
                 WEL =           0.0000                   WEL =           0.0000     WEL_0           
                 DRN =           0.0000                   DRN =           0.0000     DRN_0           
                 RCH =   398427352.7699                   RCH =      965505.5578     RCH_0           

            TOTAL IN =  1243255247.1712              TOTAL IN =     2403503.9697

          OUT:                                     OUT:
          ----                                     ----
              STO-SS =           0.0000                STO-SS =           0.0000     STORAGE         
              STO-SY =    83475284.1300                STO-SY =       65816.8528     STORAGE         
                 WEL =   252582637.9958                   WEL =      125439.9485     WEL_0           
                 DRN =   907197323.0450                   DRN =     2212247.1683     DRN_0           
                 RCH =           0.0000                   RCH =           0.0000     RCH_0           

           TOTAL OUT =  1243255245.1707             TOTAL OUT =     2403503.9697

            IN - OUT =           2.0005              IN - OUT =       3.8976E-07

 PERCENT DISCREPANCY =           0.00     PERCENT DISCREPANCY =           0.00




         TIME SUMMARY AT END OF TIME STEP    1 IN STRESS PERIOD  346
                          TIME STEP LENGTH =    1.00000    
                        STRESS PERIOD TIME =    1.00000    
                     TOTAL SIMULATION TIME =    346.000    

end timestep


start timestep kper="347" kstp="1" mode="normal"


 OUTPUT CONTROL FOR STRESS PERIOD 347 IS REPEATED USING SETTINGS FROM A PREVIOUS STRESS PERIOD.


 STRESS PERIOD 347 IS TRANSIENT


 REUSING WELS FROM LAST STRESS PERIOD

 REUSING DRNS FROM LAST STRESS PERIOD

 REUSING RCHS FROM LAST STRESS PERIOD


  VOLUME BUDGET FOR ENTIRE MODEL AT END OF TIME STEP    1, STRESS PERIOD 347
  ---------------------------------------------------------------------------------------------------

     CUMULATIVE VOLUME      L**3       RATES FOR THIS TIME STEP      L**3/T          PACKAGE NAME    
     ------------------                 ------------------------                     ----------------

           IN:                                      IN:
           ---                                      ---
              STO-SS =           0.0000                STO-SS =           0.0000     STORAGE         
              STO-SY =   846613362.1180                STO-SY =     1785467.7166     STORAGE         
                 WEL =           0.0000                   WEL =           0.0000     WEL_0           
                 DRN =           0.0000                   DRN =           0.0000     DRN_0           
                 RCH =   399406813.6656                   RCH =      979460.8957     RCH_0           

            TOTAL IN =  1246020175.7835              TOTAL IN =     2764928.6123

          OUT:                                     OUT:
          ----                                     ----
              STO-SS =           0.0000                STO-SS =           0.0000     STORAGE         
              STO-SY =    83483259.0772                STO-SY =        7974.9473     STORAGE         
                 WEL =   253228454.1459                   WEL =      645816.1502     WEL_0           
                 DRN =   909308460.5598                   DRN =     2111137.5149     DRN_0           
                 RCH =           0.0000                   RCH =           0.0000     RCH_0           

           TOTAL OUT =  1246020173.7830             TOTAL OUT =     2764928.6123

            IN - OUT =           2.0005              IN - OUT =       1.8529E-06

 PERCENT DISCREPANCY =           0.00     PERCENT DISCREPANCY =           0.00




         TIME SUMMARY AT END OF TIME STEP    1 IN STRESS PERIOD  347
                          TIME STEP LENGTH =    1.00000    
                        STRESS PERIOD TIME =    1.00000    
                     TOTAL SIMULATION TIME =    347.000    

end timestep


start timestep kper="348" kstp="1" mode="normal"


 OUTPUT CONTROL FOR STRESS PERIOD 348 IS REPEATED USING SETTINGS FROM A PREVIOUS STRESS PERIOD.


 STRESS PERIOD 348 IS TRANSIENT


 REUSING WELS FROM LAST STRESS PERIOD

 REUSING DRNS FROM LAST STRESS PERIOD

 REUSING RCHS FROM LAST STRESS PERIOD


  VOLUME BUDGET FOR ENTIRE MODEL AT END OF TIME STEP    1, STRESS PERIOD 348
  ---------------------------------------------------------------------------------------------------

     CUMULATIVE VOLUME      L**3       RATES FOR THIS TIME STEP      L**3/T          PACKAGE NAME    
     ------------------                 ------------------------                     ----------------

           IN:                                      IN:
           ---                                      ---
              STO-SS =           0.0000                STO-SS =           0.0000     STORAGE         
              STO-SY =   848078107.9823                STO-SY =     1464745.8643     STORAGE         
                 WEL =           0.0000                   WEL =           0.0000     WEL_0           
                 DRN =           0.0000                   DRN =           0.0000     DRN_0           
                 RCH =   400384269.0260                   RCH =      977455.3605     RCH_0           

            TOTAL IN =  1248462377.0083              TOTAL IN =     2442201.2248

          OUT:                                     OUT:
          ----                                     ----
              STO-SS =           0.0000                STO-SS =           0.0000     STORAGE         
              STO-SY =    83538201.6170                STO-SY =       54942.5398     STORAGE         
                 WEL =   253416212.6469                   WEL =      187758.5010     WEL_0           
                 DRN =   911507960.7438                   DRN =     2199500.1840     DRN_0           
                 RCH =           0.0000                   RCH =           0.0000     RCH_0           

           TOTAL OUT =  1248462375.0078             TOTAL OUT =     2442201.2248

            IN - OUT =           2.0005              IN - OUT =       1.0864E-06

 PERCENT DISCREPANCY =           0.00     PERCENT DISCREPANCY =           0.00




         TIME SUMMARY AT END OF TIME STEP    1 IN STRESS PERIOD  348
                          TIME STEP LENGTH =    1.00000    
                        STRESS PERIOD TIME =    1.00000    
                     TOTAL SIMULATION TIME =    348.000    

end timestep


start timestep kper="349" kstp="1" mode="normal"


 OUTPUT CONTROL FOR STRESS PERIOD 349 IS REPEATED USING SETTINGS FROM A PREVIOUS STRESS PERIOD.


 STRESS PERIOD 349 IS TRANSIENT


 REUSING WELS FROM LAST STRESS PERIOD

 REUSING DRNS FROM LAST STRESS PERIOD

 REUSING RCHS FROM LAST STRESS PERIOD


  VOLUME BUDGET FOR ENTIRE MODEL AT END OF TIME STEP    1, STRESS PERIOD 349
  ---------------------------------------------------------------------------------------------------

     CUMULATIVE VOLUME      L**3       RATES FOR THIS TIME STEP      L**3/T          PACKAGE NAME    
     ------------------                 ------------------------                     ----------------

           IN:                                      IN:
           ---                                      ---
              STO-SS =           0.0000                STO-SS =           0.0000     STORAGE         
              STO-SY =   849848004.8852                STO-SY =     1769896.9030     STORAGE         
                 WEL =           0.0000                   WEL =           0.0000     WEL_0           
                 DRN =           0.0000                   DRN =           0.0000     DRN_0           
                 RCH =   401373462.4058                   RCH =      989193.3798     RCH_0           

            TOTAL IN =  1251221467.2911              TOTAL IN =     2759090.2828

          OUT:                                     OUT:
          ----                                     ----
              STO-SS =           0.0000                STO-SS =           0.0000     STORAGE         
              STO-SY =    83551340.1776                STO-SY =       13138.5605     STORAGE         
                 WEL =   254056740.7385                   WEL =      640528.0916     WEL_0           
                 DRN =   913613384.3744                   DRN =     2105423.6306     DRN_0           
                 RCH =           0.0000                   RCH =           0.0000     RCH_0           

           TOTAL OUT =  1251221465.2905             TOTAL OUT =     2759090.2828

            IN - OUT =           2.0005              IN - OUT =      -6.8266E-07

 PERCENT DISCREPANCY =           0.00     PERCENT DISCREPANCY =          -0.00




         TIME SUMMARY AT END OF TIME STEP    1 IN STRESS PERIOD  349
                          TIME STEP LENGTH =    1.00000    
                        STRESS PERIOD TIME =    1.00000    
                     TOTAL SIMULATION TIME =    349.000    

end timestep


start timestep kper="350" kstp="1" mode="normal"


 OUTPUT CONTROL FOR STRESS PERIOD 350 IS REPEATED USING SETTINGS FROM A PREVIOUS STRESS PERIOD.


 STRESS PERIOD 350 IS TRANSIENT


 REUSING WELS FROM LAST STRESS PERIOD

 REUSING DRNS FROM LAST STRESS PERIOD

 REUSING RCHS FROM LAST STRESS PERIOD


  VOLUME BUDGET FOR ENTIRE MODEL AT END OF TIME STEP    1, STRESS PERIOD 350
  ---------------------------------------------------------------------------------------------------

     CUMULATIVE VOLUME      L**3       RATES FOR THIS TIME STEP      L**3/T          PACKAGE NAME    
     ------------------                 ------------------------                     ----------------

           IN:                                      IN:
           ---                                      ---
              STO-SS =           0.0000                STO-SS =           0.0000     STORAGE         
              STO-SY =   851299312.9147                STO-SY =     1451308.0294     STORAGE         
                 WEL =           0.0000                   WEL =           0.0000     WEL_0           
                 DRN =           0.0000                   DRN =           0.0000     DRN_0           
                 RCH =   402359931.0260                   RCH =      986468.6202     RCH_0           

            TOTAL IN =  1253659243.9407              TOTAL IN =     2437776.6496

          OUT:                                     OUT:
          ----                                     ----
              STO-SS =           0.0000                STO-SS =           0.0000     STORAGE         
              STO-SY =    83608707.0297                STO-SY =       57366.8521     STORAGE         
                 WEL =   254233618.3823                   WEL =      176877.6438     WEL_0           
                 DRN =   915816916.5281                   DRN =     2203532.1537     DRN_0           
                 RCH =           0.0000                   RCH =           0.0000     RCH_0           

           TOTAL OUT =  1253659241.9401             TOTAL OUT =     2437776.6496

            IN - OUT =           2.0005              IN - OUT =       2.2748E-06

 PERCENT DISCREPANCY =           0.00     PERCENT DISCREPANCY =           0.00




         TIME SUMMARY AT END OF TIME STEP    1 IN STRESS PERIOD  350
                          TIME STEP LENGTH =    1.00000    
                        STRESS PERIOD TIME =    1.00000    
                     TOTAL SIMULATION TIME =    350.000    

end timestep


start timestep kper="351" kstp="1" mode="normal"


 OUTPUT CONTROL FOR STRESS PERIOD 351 IS REPEATED USING SETTINGS FROM A PREVIOUS STRESS PERIOD.


 STRESS PERIOD 351 IS TRANSIENT


 REUSING WELS FROM LAST STRESS PERIOD

 REUSING DRNS FROM LAST STRESS PERIOD

 REUSING RCHS FROM LAST STRESS PERIOD


  VOLUME BUDGET FOR ENTIRE MODEL AT END OF TIME STEP    1, STRESS PERIOD 351
  ---------------------------------------------------------------------------------------------------

     CUMULATIVE VOLUME      L**3       RATES FOR THIS TIME STEP      L**3/T          PACKAGE NAME    
     ------------------                 ------------------------                     ----------------

           IN:                                      IN:
           ---                                      ---
              STO-SS =           0.0000                STO-SS =           0.0000     STORAGE         
              STO-SY =   853064186.6014                STO-SY =     1764873.6867     STORAGE         
                 WEL =           0.0000                   WEL =           0.0000     WEL_0           
                 DRN =           0.0000                   DRN =           0.0000     DRN_0           
                 RCH =   403336729.4442                   RCH =      976798.4182     RCH_0           

            TOTAL IN =  1256400916.0456              TOTAL IN =     2741672.1049

          OUT:                                     OUT:
          ----                                     ----
              STO-SS =           0.0000                STO-SS =           0.0000     STORAGE         
              STO-SY =    83616192.5993                STO-SY =        7485.5696     STORAGE         
                 WEL =   254858943.6357                   WEL =      625325.2534     WEL_0           
                 DRN =   917925777.8100                   DRN =     2108861.2819     DRN_0           
                 RCH =           0.0000                   RCH =           0.0000     RCH_0           

           TOTAL OUT =  1256400914.0451             TOTAL OUT =     2741672.1049

            IN - OUT =           2.0005              IN - OUT =       2.2398E-06

 PERCENT DISCREPANCY =           0.00     PERCENT DISCREPANCY =           0.00




         TIME SUMMARY AT END OF TIME STEP    1 IN STRESS PERIOD  351
                          TIME STEP LENGTH =    1.00000    
                        STRESS PERIOD TIME =    1.00000    
                     TOTAL SIMULATION TIME =    351.000    

end timestep


start timestep kper="352" kstp="1" mode="normal"


 OUTPUT CONTROL FOR STRESS PERIOD 352 IS REPEATED USING SETTINGS FROM A PREVIOUS STRESS PERIOD.


 STRESS PERIOD 352 IS TRANSIENT


 REUSING WELS FROM LAST STRESS PERIOD

 REUSING DRNS FROM LAST STRESS PERIOD

 REUSING RCHS FROM LAST STRESS PERIOD


  VOLUME BUDGET FOR ENTIRE MODEL AT END OF TIME STEP    1, STRESS PERIOD 352
  ---------------------------------------------------------------------------------------------------

     CUMULATIVE VOLUME      L**3       RATES FOR THIS TIME STEP      L**3/T          PACKAGE NAME    
     ------------------                 ------------------------                     ----------------

           IN:                                      IN:
           ---                                      ---
              STO-SS =           0.0000                STO-SS =           0.0000     STORAGE         
              STO-SY =   854515979.2150                STO-SY =     1451792.6136     STORAGE         
                 WEL =           0.0000                   WEL =           0.0000     WEL_0           
                 DRN =           0.0000                   DRN =           0.0000     DRN_0           
                 RCH =   404325416.3220                   RCH =      988686.8778     RCH_0           

            TOTAL IN =  1258841395.5370              TOTAL IN =     2440479.4914

          OUT:                                     OUT:
          ----                                     ----
              STO-SS =           0.0000                STO-SS =           0.0000     STORAGE         
              STO-SY =    83671945.7811                STO-SY =       55753.1818     STORAGE         
                 WEL =   255054815.5305                   WEL =      195871.8948     WEL_0           
                 DRN =   920114632.2248                   DRN =     2188854.4148     DRN_0           
                 RCH =           0.0000                   RCH =           0.0000     RCH_0           

           TOTAL OUT =  1258841393.5365             TOTAL OUT =     2440479.4914

            IN - OUT =           2.0005              IN - OUT =      -1.2657E-06

 PERCENT DISCREPANCY =           0.00     PERCENT DISCREPANCY =          -0.00




         TIME SUMMARY AT END OF TIME STEP    1 IN STRESS PERIOD  352
                          TIME STEP LENGTH =    1.00000    
                        STRESS PERIOD TIME =    1.00000    
                     TOTAL SIMULATION TIME =    352.000    

end timestep


start timestep kper="353" kstp="1" mode="normal"


 OUTPUT CONTROL FOR STRESS PERIOD 353 IS REPEATED USING SETTINGS FROM A PREVIOUS STRESS PERIOD.


 STRESS PERIOD 353 IS TRANSIENT


 REUSING WELS FROM LAST STRESS PERIOD

 REUSING DRNS FROM LAST STRESS PERIOD

 REUSING RCHS FROM LAST STRESS PERIOD


  VOLUME BUDGET FOR ENTIRE MODEL AT END OF TIME STEP    1, STRESS PERIOD 353
  ---------------------------------------------------------------------------------------------------

     CUMULATIVE VOLUME      L**3       RATES FOR THIS TIME STEP      L**3/T          PACKAGE NAME    
     ------------------                 ------------------------                     ----------------

           IN:                                      IN:
           ---                                      ---
              STO-SS =           0.0000                STO-SS =           0.0000     STORAGE         
              STO-SY =   856272575.4115                STO-SY =     1756596.1965     STORAGE         
                 WEL =           0.0000                   WEL =           0.0000     WEL_0           
                 DRN =           0.0000                   DRN =           0.0000     DRN_0           
                 RCH =   405319697.2570                   RCH =      994280.9350     RCH_0           

            TOTAL IN =  1261592272.6685              TOTAL IN =     2750877.1315

          OUT:                                     OUT:
          ----                                     ----
              STO-SS =           0.0000                STO-SS =           0.0000     STORAGE         
              STO-SY =    83680907.3419                STO-SY =        8961.5608     STORAGE         
                 WEL =   255696925.0400                   WEL =      642109.5096     WEL_0           
                 DRN =   922214438.2860                   DRN =     2099806.0611     DRN_0           
                 RCH =           0.0000                   RCH =           0.0000     RCH_0           

           TOTAL OUT =  1261592270.6680             TOTAL OUT =     2750877.1315

            IN - OUT =           2.0006              IN - OUT =       2.9118E-06

 PERCENT DISCREPANCY =           0.00     PERCENT DISCREPANCY =           0.00




         TIME SUMMARY AT END OF TIME STEP    1 IN STRESS PERIOD  353
                          TIME STEP LENGTH =    1.00000    
                        STRESS PERIOD TIME =    1.00000    
                     TOTAL SIMULATION TIME =    353.000    

end timestep


start timestep kper="354" kstp="1" mode="normal"


 OUTPUT CONTROL FOR STRESS PERIOD 354 IS REPEATED USING SETTINGS FROM A PREVIOUS STRESS PERIOD.


 STRESS PERIOD 354 IS TRANSIENT


 REUSING WELS FROM LAST STRESS PERIOD

 REUSING DRNS FROM LAST STRESS PERIOD

 REUSING RCHS FROM LAST STRESS PERIOD


  VOLUME BUDGET FOR ENTIRE MODEL AT END OF TIME STEP    1, STRESS PERIOD 354
  ---------------------------------------------------------------------------------------------------

     CUMULATIVE VOLUME      L**3       RATES FOR THIS TIME STEP      L**3/T          PACKAGE NAME    
     ------------------                 ------------------------                     ----------------

           IN:                                      IN:
           ---                                      ---
              STO-SS =           0.0000                STO-SS =           0.0000     STORAGE         
              STO-SY =   857718308.0468                STO-SY =     1445732.6353     STORAGE         
                 WEL =           0.0000                   WEL =           0.0000     WEL_0           
                 DRN =           0.0000                   DRN =           0.0000     DRN_0           
                 RCH =   406300946.4707                   RCH =      981249.2137     RCH_0           

            TOTAL IN =  1264019254.5175              TOTAL IN =     2426981.8489

          OUT:                                     OUT:
          ----                                     ----
              STO-SS =           0.0000                STO-SS =           0.0000     STORAGE         
              STO-SY =    83736853.5284                STO-SY =       55946.1864     STORAGE         
                 WEL =   255871109.1162                   WEL =      174184.0762     WEL_0           
                 DRN =   924411289.8724                   DRN =     2196851.5864     DRN_0           
                 RCH =           0.0000                   RCH =           0.0000     RCH_0           

           TOTAL OUT =  1264019252.5169             TOTAL OUT =     2426981.8489

            IN - OUT =           2.0005              IN - OUT =      -2.5025E-06

 PERCENT DISCREPANCY =           0.00     PERCENT DISCREPANCY =          -0.00




         TIME SUMMARY AT END OF TIME STEP    1 IN STRESS PERIOD  354
                          TIME STEP LENGTH =    1.00000    
                        STRESS PERIOD TIME =    1.00000    
                     TOTAL SIMULATION TIME =    354.000    

end timestep


start timestep kper="355" kstp="1" mode="normal"


 OUTPUT CONTROL FOR STRESS PERIOD 355 IS REPEATED USING SETTINGS FROM A PREVIOUS STRESS PERIOD.


 STRESS PERIOD 355 IS TRANSIENT


 REUSING WELS FROM LAST STRESS PERIOD

 REUSING DRNS FROM LAST STRESS PERIOD

 REUSING RCHS FROM LAST STRESS PERIOD


  VOLUME BUDGET FOR ENTIRE MODEL AT END OF TIME STEP    1, STRESS PERIOD 355
  ---------------------------------------------------------------------------------------------------

     CUMULATIVE VOLUME      L**3       RATES FOR THIS TIME STEP      L**3/T          PACKAGE NAME    
     ------------------                 ------------------------                     ----------------

           IN:                                      IN:
           ---                                      ---
              STO-SS =           0.0000                STO-SS =           0.0000     STORAGE         
              STO-SY =   859478973.0454                STO-SY =     1760664.9986     STORAGE         
                 WEL =           0.0000                   WEL =           0.0000     WEL_0           
                 DRN =           0.0000                   DRN =           0.0000     DRN_0           
                 RCH =   407281051.6633                   RCH =      980105.1927     RCH_0           

            TOTAL IN =  1266760024.7087              TOTAL IN =     2740770.1913

          OUT:                                     OUT:
          ----                                     ----
              STO-SS =           0.0000                STO-SS =           0.0000     STORAGE         
              STO-SY =    83744706.1493                STO-SY =        7852.6210     STORAGE         
                 WEL =   256496814.1726                   WEL =      625705.0564     WEL_0           
                 DRN =   926518502.3863                   DRN =     2107212.5139     DRN_0           
                 RCH =           0.0000                   RCH =           0.0000     RCH_0           

           TOTAL OUT =  1266760022.7082             TOTAL OUT =     2740770.1913

            IN - OUT =           2.0005              IN - OUT =      -1.6545E-06

 PERCENT DISCREPANCY =           0.00     PERCENT DISCREPANCY =          -0.00




         TIME SUMMARY AT END OF TIME STEP    1 IN STRESS PERIOD  355
                          TIME STEP LENGTH =    1.00000    
                        STRESS PERIOD TIME =    1.00000    
                     TOTAL SIMULATION TIME =    355.000    

end timestep


start timestep kper="356" kstp="1" mode="normal"


 OUTPUT CONTROL FOR STRESS PERIOD 356 IS REPEATED USING SETTINGS FROM A PREVIOUS STRESS PERIOD.


 STRESS PERIOD 356 IS TRANSIENT


 REUSING WELS FROM LAST STRESS PERIOD

 REUSING DRNS FROM LAST STRESS PERIOD

 REUSING RCHS FROM LAST STRESS PERIOD


  VOLUME BUDGET FOR ENTIRE MODEL AT END OF TIME STEP    1, STRESS PERIOD 356
  ---------------------------------------------------------------------------------------------------

     CUMULATIVE VOLUME      L**3       RATES FOR THIS TIME STEP      L**3/T          PACKAGE NAME    
     ------------------                 ------------------------                     ----------------

           IN:                                      IN:
           ---                                      ---
              STO-SS =           0.0000                STO-SS =           0.0000     STORAGE         
              STO-SY =   861035096.3985                STO-SY =     1556123.3531     STORAGE         
                 WEL =           0.0000                   WEL =           0.0000     WEL_0           
                 DRN =           0.0000                   DRN =           0.0000     DRN_0           
                 RCH =   408295059.5675                   RCH =     1014007.9042     RCH_0           

            TOTAL IN =  1269330155.9660              TOTAL IN =     2570131.2573

          OUT:                                     OUT:
          ----                                     ----
              STO-SS =           0.0000                STO-SS =           0.0000     STORAGE         
              STO-SY =    83793095.8965                STO-SY =       48389.7472     STORAGE         
                 WEL =   256856418.1159                   WEL =      359603.9433     WEL_0           
                 DRN =   928680639.9531                   DRN =     2162137.5668     DRN_0           
                 RCH =           0.0000                   RCH =           0.0000     RCH_0           

           TOTAL OUT =  1269330153.9655             TOTAL OUT =     2570131.2573

            IN - OUT =           2.0005              IN - OUT =       3.1106E-07

 PERCENT DISCREPANCY =           0.00     PERCENT DISCREPANCY =           0.00




         TIME SUMMARY AT END OF TIME STEP    1 IN STRESS PERIOD  356
                          TIME STEP LENGTH =    1.00000    
                        STRESS PERIOD TIME =    1.00000    
                     TOTAL SIMULATION TIME =    356.000    

end timestep


start timestep kper="357" kstp="1" mode="normal"


 OUTPUT CONTROL FOR STRESS PERIOD 357 IS REPEATED USING SETTINGS FROM A PREVIOUS STRESS PERIOD.


 STRESS PERIOD 357 IS TRANSIENT


 REUSING WELS FROM LAST STRESS PERIOD

 REUSING DRNS FROM LAST STRESS PERIOD

 REUSING RCHS FROM LAST STRESS PERIOD


  VOLUME BUDGET FOR ENTIRE MODEL AT END OF TIME STEP    1, STRESS PERIOD 357
  ---------------------------------------------------------------------------------------------------

     CUMULATIVE VOLUME      L**3       RATES FOR THIS TIME STEP      L**3/T          PACKAGE NAME    
     ------------------                 ------------------------                     ----------------

           IN:                                      IN:
           ---                                      ---
              STO-SS =           0.0000                STO-SS =           0.0000     STORAGE         
              STO-SY =   862590765.8029                STO-SY =     1555669.4044     STORAGE         
                 WEL =           0.0000                   WEL =           0.0000     WEL_0           
                 DRN =           0.0000                   DRN =           0.0000     DRN_0           
                 RCH =   409255939.3288                   RCH =      960879.7612     RCH_0           

            TOTAL IN =  1271846705.1316              TOTAL IN =     2516549.1656

          OUT:                                     OUT:
          ----                                     ----
              STO-SS =           0.0000                STO-SS =           0.0000     STORAGE         
              STO-SY =    83806552.4850                STO-SY =       13456.5885     STORAGE         
                 WEL =   257239610.3155                   WEL =      383192.1996     WEL_0           
                 DRN =   930800540.3306                   DRN =     2119900.3775     DRN_0           
                 RCH =           0.0000                   RCH =           0.0000     RCH_0           

           TOTAL OUT =  1271846703.1311             TOTAL OUT =     2516549.1656

            IN - OUT =           2.0005              IN - OUT =       2.7940E-09

 PERCENT DISCREPANCY =           0.00     PERCENT DISCREPANCY =           0.00




         TIME SUMMARY AT END OF TIME STEP    1 IN STRESS PERIOD  357
                          TIME STEP LENGTH =    1.00000    
                        STRESS PERIOD TIME =    1.00000    
                     TOTAL SIMULATION TIME =    357.000    

end timestep


start timestep kper="358" kstp="1" mode="normal"


 OUTPUT CONTROL FOR STRESS PERIOD 358 IS REPEATED USING SETTINGS FROM A PREVIOUS STRESS PERIOD.


 STRESS PERIOD 358 IS TRANSIENT


 REUSING WELS FROM LAST STRESS PERIOD

 REUSING DRNS FROM LAST STRESS PERIOD

 REUSING RCHS FROM LAST STRESS PERIOD


  VOLUME BUDGET FOR ENTIRE MODEL AT END OF TIME STEP    1, STRESS PERIOD 358
  ---------------------------------------------------------------------------------------------------

     CUMULATIVE VOLUME      L**3       RATES FOR THIS TIME STEP      L**3/T          PACKAGE NAME    
     ------------------                 ------------------------                     ----------------

           IN:                                      IN:
           ---                                      ---
              STO-SS =           0.0000                STO-SS =           0.0000     STORAGE         
              STO-SY =   864213053.8565                STO-SY =     1622288.0536     STORAGE         
                 WEL =           0.0000                   WEL =           0.0000     WEL_0           
                 DRN =           0.0000                   DRN =           0.0000     DRN_0           
                 RCH =   410248172.6559                   RCH =      992233.3272     RCH_0           

            TOTAL IN =  1274461226.5124              TOTAL IN =     2614521.3808

          OUT:                                     OUT:
          ----                                     ----
              STO-SS =           0.0000                STO-SS =           0.0000     STORAGE         
              STO-SY =    83843166.2239                STO-SY =       36613.7389     STORAGE         
                 WEL =   257672566.1802                   WEL =      432955.8646     WEL_0           
                 DRN =   932945492.1078                   DRN =     2144951.7772     DRN_0           
                 RCH =           0.0000                   RCH =           0.0000     RCH_0           

           TOTAL OUT =  1274461224.5119             TOTAL OUT =     2614521.3808

            IN - OUT =           2.0005              IN - OUT =       3.7486E-07

 PERCENT DISCREPANCY =           0.00     PERCENT DISCREPANCY =           0.00




         TIME SUMMARY AT END OF TIME STEP    1 IN STRESS PERIOD  358
                          TIME STEP LENGTH =    1.00000    
                        STRESS PERIOD TIME =    1.00000    
                     TOTAL SIMULATION TIME =    358.000    

end timestep


start timestep kper="359" kstp="1" mode="normal"


 OUTPUT CONTROL FOR STRESS PERIOD 359 IS REPEATED USING SETTINGS FROM A PREVIOUS STRESS PERIOD.


 STRESS PERIOD 359 IS TRANSIENT


 REUSING WELS FROM LAST STRESS PERIOD

 REUSING DRNS FROM LAST STRESS PERIOD

 REUSING RCHS FROM LAST STRESS PERIOD


  VOLUME BUDGET FOR ENTIRE MODEL AT END OF TIME STEP    1, STRESS PERIOD 359
  ---------------------------------------------------------------------------------------------------

     CUMULATIVE VOLUME      L**3       RATES FOR THIS TIME STEP      L**3/T          PACKAGE NAME    
     ------------------                 ------------------------                     ----------------

           IN:                                      IN:
           ---                                      ---
              STO-SS =           0.0000                STO-SS =           0.0000     STORAGE         
              STO-SY =   865743150.9728                STO-SY =     1530097.1163     STORAGE         
                 WEL =           0.0000                   WEL =           0.0000     WEL_0           
                 DRN =           0.0000                   DRN =           0.0000     DRN_0           
                 RCH =   411206185.2315                   RCH =      958012.5756     RCH_0           

            TOTAL IN =  1276949336.2043              TOTAL IN =     2488109.6919

          OUT:                                     OUT:
          ----                                     ----
              STO-SS =           0.0000                STO-SS =           0.0000     STORAGE         
              STO-SY =    83857343.2275                STO-SY =       14177.0037     STORAGE         
                 WEL =   258026733.7462                   WEL =      354167.5660     WEL_0           
                 DRN =   935065257.2300                   DRN =     2119765.1222     DRN_0           
                 RCH =           0.0000                   RCH =           0.0000     RCH_0           

           TOTAL OUT =  1276949334.2037             TOTAL OUT =     2488109.6919

            IN - OUT =           2.0005              IN - OUT =       1.5097E-06

 PERCENT DISCREPANCY =           0.00     PERCENT DISCREPANCY =           0.00




         TIME SUMMARY AT END OF TIME STEP    1 IN STRESS PERIOD  359
                          TIME STEP LENGTH =    1.00000    
                        STRESS PERIOD TIME =    1.00000    
                     TOTAL SIMULATION TIME =    359.000    

end timestep


start timestep kper="360" kstp="1" mode="normal"


 OUTPUT CONTROL FOR STRESS PERIOD 360 IS REPEATED USING SETTINGS FROM A PREVIOUS STRESS PERIOD.


 STRESS PERIOD 360 IS TRANSIENT


 REUSING WELS FROM LAST STRESS PERIOD

 REUSING DRNS FROM LAST STRESS PERIOD

 REUSING RCHS FROM LAST STRESS PERIOD


  VOLUME BUDGET FOR ENTIRE MODEL AT END OF TIME STEP    1, STRESS PERIOD 360
  ---------------------------------------------------------------------------------------------------

     CUMULATIVE VOLUME      L**3       RATES FOR THIS TIME STEP      L**3/T          PACKAGE NAME    
     ------------------                 ------------------------                     ----------------

           IN:                                      IN:
           ---                                      ---
              STO-SS =           0.0000                STO-SS =           0.0000     STORAGE         
              STO-SY =   867416733.5204                STO-SY =     1673582.5476     STORAGE         
                 WEL =           0.0000                   WEL =           0.0000     WEL_0           
                 DRN =           0.0000                   DRN =           0.0000     DRN_0           
                 RCH =   412189107.4546                   RCH =      982922.2231     RCH_0           

            TOTAL IN =  1279605840.9750              TOTAL IN =     2656504.7707

          OUT:                                     OUT:
          ----                                     ----
              STO-SS =           0.0000                STO-SS =           0.0000     STORAGE         
              STO-SY =    83894509.0201                STO-SY =       37165.7926     STORAGE         
                 WEL =   258506876.2654                   WEL =      480142.5193     WEL_0           
                 DRN =   937204453.6889                   DRN =     2139196.4589     DRN_0           
                 RCH =           0.0000                   RCH =           0.0000     RCH_0           

           TOTAL OUT =  1279605838.9745             TOTAL OUT =     2656504.7707

            IN - OUT =           2.0006              IN - OUT =       1.1153E-06

 PERCENT DISCREPANCY =           0.00     PERCENT DISCREPANCY =           0.00




         TIME SUMMARY AT END OF TIME STEP    1 IN STRESS PERIOD  360
                          TIME STEP LENGTH =    1.00000    
                        STRESS PERIOD TIME =    1.00000    
                     TOTAL SIMULATION TIME =    360.000    

end timestep


start timestep kper="361" kstp="1" mode="normal"


 OUTPUT CONTROL FOR STRESS PERIOD 361 IS REPEATED USING SETTINGS FROM A PREVIOUS STRESS PERIOD.


 STRESS PERIOD 361 IS TRANSIENT


 REUSING WELS FROM LAST STRESS PERIOD

 REUSING DRNS FROM LAST STRESS PERIOD

 REUSING RCHS FROM LAST STRESS PERIOD


  VOLUME BUDGET FOR ENTIRE MODEL AT END OF TIME STEP    1, STRESS PERIOD 361
  ---------------------------------------------------------------------------------------------------

     CUMULATIVE VOLUME      L**3       RATES FOR THIS TIME STEP      L**3/T          PACKAGE NAME    
     ------------------                 ------------------------                     ----------------

           IN:                                      IN:
           ---                                      ---
              STO-SS =           0.0000                STO-SS =           0.0000     STORAGE         
              STO-SY =   869073174.4873                STO-SY =     1656440.9669     STORAGE         
                 WEL =           0.0000                   WEL =           0.0000     WEL_0           
                 DRN =           0.0000                   DRN =           0.0000     DRN_0           
                 RCH =   413161415.8882                   RCH =      972308.4336     RCH_0           

            TOTAL IN =  1282234590.3755              TOTAL IN =     2628749.4005

          OUT:                                     OUT:
          ----                                     ----
              STO-SS =           0.0000                STO-SS =           0.0000     STORAGE         
              STO-SY =    83908850.0488                STO-SY =       14341.0287     STORAGE         
                 WEL =   259038944.3128                   WEL =      532068.0474     WEL_0           
                 DRN =   939286794.0133                   DRN =     2082340.3244     DRN_0           
                 RCH =           0.0000                   RCH =           0.0000     RCH_0           

           TOTAL OUT =  1282234588.3749             TOTAL OUT =     2628749.4005

            IN - OUT =           2.0006              IN - OUT =       1.9744E-07

 PERCENT DISCREPANCY =           0.00     PERCENT DISCREPANCY =           0.00




         TIME SUMMARY AT END OF TIME STEP    1 IN STRESS PERIOD  361
                          TIME STEP LENGTH =    1.00000    
                        STRESS PERIOD TIME =    1.00000    
                     TOTAL SIMULATION TIME =    361.000    

end timestep


start timestep kper="362" kstp="1" mode="normal"


 OUTPUT CONTROL FOR STRESS PERIOD 362 IS REPEATED USING SETTINGS FROM A PREVIOUS STRESS PERIOD.


 STRESS PERIOD 362 IS TRANSIENT


 REUSING WELS FROM LAST STRESS PERIOD

 REUSING DRNS FROM LAST STRESS PERIOD

 REUSING RCHS FROM LAST STRESS PERIOD


  VOLUME BUDGET FOR ENTIRE MODEL AT END OF TIME STEP    1, STRESS PERIOD 362
  ---------------------------------------------------------------------------------------------------

     CUMULATIVE VOLUME      L**3       RATES FOR THIS TIME STEP      L**3/T          PACKAGE NAME    
     ------------------                 ------------------------                     ----------------

           IN:                                      IN:
           ---                                      ---
              STO-SS =           0.0000                STO-SS =           0.0000     STORAGE         
              STO-SY =   870509073.7020                STO-SY =     1435899.2148     STORAGE         
                 WEL =           0.0000                   WEL =           0.0000     WEL_0           
                 DRN =           0.0000                   DRN =           0.0000     DRN_0           
                 RCH =   414112746.1189                   RCH =      951330.2307     RCH_0           

            TOTAL IN =  1284621819.8209              TOTAL IN =     2387229.4454

          OUT:                                     OUT:
          ----                                     ----
              STO-SS =           0.0000                STO-SS =           0.0000     STORAGE         
              STO-SY =    83952955.9051                STO-SY =       44105.8563     STORAGE         
                 WEL =   259216648.1203                   WEL =      177703.8075     WEL_0           
                 DRN =   941452213.3579                   DRN =     2165419.3447     DRN_0           
                 RCH =           0.0000                   RCH =           0.0000     RCH_0           

           TOTAL OUT =  1284621817.3833             TOTAL OUT =     2387229.0084

            IN - OUT =           2.4376              IN - OUT =           0.4370

 PERCENT DISCREPANCY =           0.00     PERCENT DISCREPANCY =           0.00




         TIME SUMMARY AT END OF TIME STEP    1 IN STRESS PERIOD  362
                          TIME STEP LENGTH =    1.00000    
                        STRESS PERIOD TIME =    1.00000    
                     TOTAL SIMULATION TIME =    362.000    

end timestep


start timestep kper="363" kstp="1" mode="normal"


 OUTPUT CONTROL FOR STRESS PERIOD 363 IS REPEATED USING SETTINGS FROM A PREVIOUS STRESS PERIOD.


 STRESS PERIOD 363 IS TRANSIENT


 REUSING WELS FROM LAST STRESS PERIOD

 REUSING DRNS FROM LAST STRESS PERIOD

 REUSING RCHS FROM LAST STRESS PERIOD


  VOLUME BUDGET FOR ENTIRE MODEL AT END OF TIME STEP    1, STRESS PERIOD 363
  ---------------------------------------------------------------------------------------------------

     CUMULATIVE VOLUME      L**3       RATES FOR THIS TIME STEP      L**3/T          PACKAGE NAME    
     ------------------                 ------------------------                     ----------------

           IN:                                      IN:
           ---                                      ---
              STO-SS =           0.0000                STO-SS =           0.0000     STORAGE         
              STO-SY =   872224479.6304                STO-SY =     1715405.9284     STORAGE         
                 WEL =           0.0000                   WEL =           0.0000     WEL_0           
                 DRN =           0.0000                   DRN =           0.0000     DRN_0           
                 RCH =   415071795.2026                   RCH =      959049.0838     RCH_0           

            TOTAL IN =  1287296274.8331              TOTAL IN =     2674455.0122

          OUT:                                     OUT:
          ----                                     ----
              STO-SS =           0.0000                STO-SS =           0.0000     STORAGE         
              STO-SY =    83961381.7354                STO-SY =        8425.8303     STORAGE         
                 WEL =   259799122.2699                   WEL =      582474.1496     WEL_0           
                 DRN =   943535768.3902                   DRN =     2083555.0322     DRN_0           
                 RCH =           0.0000                   RCH =           0.0000     RCH_0           

           TOTAL OUT =  1287296272.3955             TOTAL OUT =     2674455.0122

            IN - OUT =           2.4376              IN - OUT =      -1.2140E-06

 PERCENT DISCREPANCY =           0.00     PERCENT DISCREPANCY =          -0.00




         TIME SUMMARY AT END OF TIME STEP    1 IN STRESS PERIOD  363
                          TIME STEP LENGTH =    1.00000    
                        STRESS PERIOD TIME =    1.00000    
                     TOTAL SIMULATION TIME =    363.000    

end timestep


start timestep kper="364" kstp="1" mode="normal"


 OUTPUT CONTROL FOR STRESS PERIOD 364 IS REPEATED USING SETTINGS FROM A PREVIOUS STRESS PERIOD.


 STRESS PERIOD 364 IS TRANSIENT


 REUSING WELS FROM LAST STRESS PERIOD

 REUSING DRNS FROM LAST STRESS PERIOD

 REUSING RCHS FROM LAST STRESS PERIOD


  VOLUME BUDGET FOR ENTIRE MODEL AT END OF TIME STEP    1, STRESS PERIOD 364
  ---------------------------------------------------------------------------------------------------

     CUMULATIVE VOLUME      L**3       RATES FOR THIS TIME STEP      L**3/T          PACKAGE NAME    
     ------------------                 ------------------------                     ----------------

           IN:                                      IN:
           ---                                      ---
              STO-SS =           0.0000                STO-SS =           0.0000     STORAGE         
              STO-SY =   873653424.9918                STO-SY =     1428945.3613     STORAGE         
                 WEL =           0.0000                   WEL =           0.0000     WEL_0           
                 DRN =           0.0000                   DRN =           0.0000     DRN_0           
                 RCH =   416023859.4351                   RCH =      952064.2325     RCH_0           

            TOTAL IN =  1289677284.4269              TOTAL IN =     2381009.5938

          OUT:                                     OUT:
          ----                                     ----
              STO-SS =           0.0000                STO-SS =           0.0000     STORAGE         
              STO-SY =    84004213.6464                STO-SY =       42831.9110     STORAGE         
                 WEL =   259997521.3873                   WEL =      198399.1174     WEL_0           
                 DRN =   945675546.9556                   DRN =     2139778.5655     DRN_0           
                 RCH =           0.0000                   RCH =           0.0000     RCH_0           

           TOTAL OUT =  1289677281.9893             TOTAL OUT =     2381009.5938

            IN - OUT =           2.4376              IN - OUT =       1.0254E-06

 PERCENT DISCREPANCY =           0.00     PERCENT DISCREPANCY =           0.00




         TIME SUMMARY AT END OF TIME STEP    1 IN STRESS PERIOD  364
                          TIME STEP LENGTH =    1.00000    
                        STRESS PERIOD TIME =    1.00000    
                     TOTAL SIMULATION TIME =    364.000    

end timestep


start timestep kper="365" kstp="1" mode="normal"


 OUTPUT CONTROL FOR STRESS PERIOD 365 IS REPEATED USING SETTINGS FROM A PREVIOUS STRESS PERIOD.


 STRESS PERIOD 365 IS TRANSIENT


 REUSING WELS FROM LAST STRESS PERIOD

 REUSING DRNS FROM LAST STRESS PERIOD

 REUSING RCHS FROM LAST STRESS PERIOD


  VOLUME BUDGET FOR ENTIRE MODEL AT END OF TIME STEP    1, STRESS PERIOD 365
  ---------------------------------------------------------------------------------------------------

     CUMULATIVE VOLUME      L**3       RATES FOR THIS TIME STEP      L**3/T          PACKAGE NAME    
     ------------------                 ------------------------                     ----------------

           IN:                                      IN:
           ---                                      ---
              STO-SS =           0.0000                STO-SS =           0.0000     STORAGE         
              STO-SY =   875370662.5621                STO-SY =     1717237.5704     STORAGE         
                 WEL =           0.0000                   WEL =           0.0000     WEL_0           
                 DRN =           0.0000                   DRN =           0.0000     DRN_0           
                 RCH =   417000846.4758                   RCH =      976987.0407     RCH_0           

            TOTAL IN =  1292371509.0380              TOTAL IN =     2694224.6110

          OUT:                                     OUT:
          ----                                     ----
              STO-SS =           0.0000                STO-SS =           0.0000     STORAGE         
              STO-SY =    84017364.4655                STO-SY =       13150.8191     STORAGE         
                 WEL =   260585712.4584                   WEL =      588191.0711     WEL_0           
                 DRN =   947768429.6765                   DRN =     2092882.7208     DRN_0           
                 RCH =           0.0000                   RCH =           0.0000     RCH_0           

           TOTAL OUT =  1292371506.6004             TOTAL OUT =     2694224.6110

            IN - OUT =           2.4376              IN - OUT =       3.1302E-06

 PERCENT DISCREPANCY =           0.00     PERCENT DISCREPANCY =           0.00




         TIME SUMMARY AT END OF TIME STEP    1 IN STRESS PERIOD  365
                          TIME STEP LENGTH =    1.00000    
                        STRESS PERIOD TIME =    1.00000    
                     TOTAL SIMULATION TIME =    365.000    

end timestep

